-- Copyright (C) 2023-2026 NORCE Research AS
-- This deck was generated by pyopmspe11 https://github.com/OPM/pyopmspe11
----------------------------------------------------------------------------
RUNSPEC
----------------------------------------------------------------------------
DIMENS 
170 102 157 /

EQLDIMS
/

TABDIMS
7 /

WATER
GAS
CO2STORE
DISGASW
VAPWAT
DIFFUSE
THERMAL

METRIC

START
1 JAN 2025 /

UNIFOUT
----------------------------------------------------------------------------
GRID
----------------------------------------------------------------------------
INIT

INCLUDE
GRID.INC /

INCLUDE
FLUXNUM.INC /

DISPERC
2722380*0 /

EQUALREG
PORO    1.000000E-01 1 F /
PORO    2.000000E-01 2 F /
PORO    2.000000E-01 3 F /
PORO    2.000000E-01 4 F /
PORO    2.500000E-01 5 F /
PORO    3.500000E-01 6 F /
PORO    1.000000E-06 7 F /
PERMX   1.013200E-01 1 F /
PERMX   1.013240E+02 2 F /
PERMX   2.026500E+02 3 F /
PERMX   5.066250E+02 4 F /
PERMX   1.013250E+03 5 F /
PERMX   2.026500E+03 6 F /
PERMX   1.000000E-05 7 F /
PERMY   1.013200E-01 1 F /
PERMY   1.013240E+02 2 F /
PERMY   2.026500E+02 3 F /
PERMY   5.066250E+02 4 F /
PERMY   1.013250E+03 5 F /
PERMY   2.026500E+03 6 F /
PERMY   1.000000E-05 7 F /
PERMZ   1.013200E-02 1 F /
PERMZ   1.013240E+01 2 F /
PERMZ   2.026500E+01 3 F /
PERMZ   5.066250E+01 4 F /
PERMZ   1.013250E+02 5 F /
PERMZ   2.026500E+02 6 F /
PERMZ   1.000000E-06 7 F /
THCONR  1.641600E+02 1 F /
THCONR  1.080000E+02 2 F /
THCONR  1.080000E+02 3 F /
THCONR  1.080000E+02 4 F /
THCONR  7.948800E+01 5 F /
THCONR  2.246400E+01 6 F /
THCONR  1.728000E+02 7 F /
DISPERC 1.000000E+01 1 F /
DISPERC 1.000000E+01 2 F /
DISPERC 1.000000E+01 3 F /
DISPERC 1.000000E+01 4 F /
DISPERC 1.000000E+01 5 F /
DISPERC 1.000000E+01 6 F /
DISPERC 0.000000E+00 7 F /
/

BCCON 
1 1 170 1 102 1 1 Z- /
2 1 170 1 102 157 157 Z /
/
----------------------------------------------------------------------------
EDIT
----------------------------------------------------------------------------
INCLUDE
PVBOUNDARIES.INC /
----------------------------------------------------------------------------
PROPS
----------------------------------------------------------------------------
INCLUDE
TABLES.INC /

DIFFAWAT
8.64e-05 8.64e-05 /

DIFFAGAS
0.001728 0.001728 /

SPECROCK
36.12 2125.0
70 2125.0 / --Table 1
/ --Defaulted to table 1
/ --Defaulted to table 1
/ --Defaulted to table 1
/ --Defaulted to table 1
/ --Defaulted to table 1
/ --Defaulted to table 1

THCO2MIX
NONE NONE NONE /
----------------------------------------------------------------------------
REGIONS
----------------------------------------------------------------------------
COPY
FLUXNUM SATNUM /
/

INCLUDE
FIPNUM.INC /
----------------------------------------------------------------------------
SOLUTION
---------------------------------------------------------------------------
EQUIL
1055.0416666666667 300.0 0 0 0 0 1 1 0 /

RPTRST
BASIC=2 DEN PCGW RSWSAT /

RTEMPVD
                 0 36.12
1355.0416666666667 70 /
----------------------------------------------------------------------------
SUMMARY
----------------------------------------------------------------------------
PERFORMA
FGMIP
RGKTR
/
RGKMO
/
RGMDS
/
BWPR
91 51 102 /
104 51 8 /
/
----------------------------------------------------------------------------
SCHEDULE
----------------------------------------------------------------------------
RPTRST
BASIC=2 DEN PCGW RESIDUAL RSWSAT /

BCPROP
1 THERMAL /
2 THERMAL /
/

TUNING
0.01 3650 /
/
/
SOURCE
55 21 135 GAS 0.000000E+00 1* 1.000000E+01 /
55 22 136 GAS 0.000000E+00 1* 1.000000E+01 /
55 23 136 GAS 0.000000E+00 1* 1.000000E+01 /
55 24 136 GAS 0.000000E+00 1* 1.000000E+01 /
55 25 136 GAS 0.000000E+00 1* 1.000000E+01 /
55 26 137 GAS 0.000000E+00 1* 1.000000E+01 /
55 27 137 GAS 0.000000E+00 1* 1.000000E+01 /
55 28 137 GAS 0.000000E+00 1* 1.000000E+01 /
55 29 137 GAS 0.000000E+00 1* 1.000000E+01 /
55 30 138 GAS 0.000000E+00 1* 1.000000E+01 /
55 31 138 GAS 0.000000E+00 1* 1.000000E+01 /
55 32 138 GAS 0.000000E+00 1* 1.000000E+01 /
55 33 138 GAS 0.000000E+00 1* 1.000000E+01 /
55 34 139 GAS 0.000000E+00 1* 1.000000E+01 /
55 35 139 GAS 0.000000E+00 1* 1.000000E+01 /
55 36 139 GAS 0.000000E+00 1* 1.000000E+01 /
55 37 139 GAS 0.000000E+00 1* 1.000000E+01 /
55 38 139 GAS 0.000000E+00 1* 1.000000E+01 /
55 39 139 GAS 0.000000E+00 1* 1.000000E+01 /
55 40 139 GAS 0.000000E+00 1* 1.000000E+01 /
55 41 140 GAS 0.000000E+00 1* 1.000000E+01 /
55 42 140 GAS 0.000000E+00 1* 1.000000E+01 /
55 43 140 GAS 0.000000E+00 1* 1.000000E+01 /
55 44 140 GAS 0.000000E+00 1* 1.000000E+01 /
55 45 140 GAS 0.000000E+00 1* 1.000000E+01 /
55 46 140 GAS 0.000000E+00 1* 1.000000E+01 /
55 47 140 GAS 0.000000E+00 1* 1.000000E+01 /
55 48 140 GAS 0.000000E+00 1* 1.000000E+01 /
55 49 140 GAS 0.000000E+00 1* 1.000000E+01 /
55 50 140 GAS 0.000000E+00 1* 1.000000E+01 /
55 51 140 GAS 0.000000E+00 1* 1.000000E+01 /
55 52 140 GAS 0.000000E+00 1* 1.000000E+01 /
55 53 140 GAS 0.000000E+00 1* 1.000000E+01 /
55 54 140 GAS 0.000000E+00 1* 1.000000E+01 /
55 55 140 GAS 0.000000E+00 1* 1.000000E+01 /
55 56 140 GAS 0.000000E+00 1* 1.000000E+01 /
55 57 140 GAS 0.000000E+00 1* 1.000000E+01 /
55 58 140 GAS 0.000000E+00 1* 1.000000E+01 /
55 59 140 GAS 0.000000E+00 1* 1.000000E+01 /
55 60 140 GAS 0.000000E+00 1* 1.000000E+01 /
55 61 140 GAS 0.000000E+00 1* 1.000000E+01 /
55 62 139 GAS 0.000000E+00 1* 1.000000E+01 /
55 63 139 GAS 0.000000E+00 1* 1.000000E+01 /
55 64 139 GAS 0.000000E+00 1* 1.000000E+01 /
55 65 139 GAS 0.000000E+00 1* 1.000000E+01 /
55 66 139 GAS 0.000000E+00 1* 1.000000E+01 /
55 67 139 GAS 0.000000E+00 1* 1.000000E+01 /
55 68 138 GAS 0.000000E+00 1* 1.000000E+01 /
55 69 138 GAS 0.000000E+00 1* 1.000000E+01 /
55 70 138 GAS 0.000000E+00 1* 1.000000E+01 /
55 71 138 GAS 0.000000E+00 1* 1.000000E+01 /
55 72 138 GAS 0.000000E+00 1* 1.000000E+01 /
55 73 137 GAS 0.000000E+00 1* 1.000000E+01 /
55 74 137 GAS 0.000000E+00 1* 1.000000E+01 /
55 75 137 GAS 0.000000E+00 1* 1.000000E+01 /
55 76 137 GAS 0.000000E+00 1* 1.000000E+01 /
55 77 136 GAS 0.000000E+00 1* 1.000000E+01 /
55 78 136 GAS 0.000000E+00 1* 1.000000E+01 /
55 79 136 GAS 0.000000E+00 1* 1.000000E+01 /
55 80 135 GAS 0.000000E+00 1* 1.000000E+01 /
55 81 135 GAS 0.000000E+00 1* 1.000000E+01 /
103 21 69 GAS 0.000000E+00 1* 1.000000E+01 /
103 22 69 GAS 0.000000E+00 1* 1.000000E+01 /
103 23 69 GAS 0.000000E+00 1* 1.000000E+01 /
103 24 69 GAS 0.000000E+00 1* 1.000000E+01 /
103 25 69 GAS 0.000000E+00 1* 1.000000E+01 /
103 26 69 GAS 0.000000E+00 1* 1.000000E+01 /
103 27 69 GAS 0.000000E+00 1* 1.000000E+01 /
103 28 69 GAS 0.000000E+00 1* 1.000000E+01 /
103 29 69 GAS 0.000000E+00 1* 1.000000E+01 /
103 30 69 GAS 0.000000E+00 1* 1.000000E+01 /
103 31 69 GAS 0.000000E+00 1* 1.000000E+01 /
103 32 69 GAS 0.000000E+00 1* 1.000000E+01 /
103 33 69 GAS 0.000000E+00 1* 1.000000E+01 /
103 34 69 GAS 0.000000E+00 1* 1.000000E+01 /
103 35 69 GAS 0.000000E+00 1* 1.000000E+01 /
103 36 69 GAS 0.000000E+00 1* 1.000000E+01 /
103 37 69 GAS 0.000000E+00 1* 1.000000E+01 /
103 38 69 GAS 0.000000E+00 1* 1.000000E+01 /
103 39 69 GAS 0.000000E+00 1* 1.000000E+01 /
103 40 69 GAS 0.000000E+00 1* 1.000000E+01 /
103 41 69 GAS 0.000000E+00 1* 1.000000E+01 /
103 42 69 GAS 0.000000E+00 1* 1.000000E+01 /
103 43 69 GAS 0.000000E+00 1* 1.000000E+01 /
103 44 69 GAS 0.000000E+00 1* 1.000000E+01 /
103 45 69 GAS 0.000000E+00 1* 1.000000E+01 /
103 46 69 GAS 0.000000E+00 1* 1.000000E+01 /
103 47 69 GAS 0.000000E+00 1* 1.000000E+01 /
103 48 69 GAS 0.000000E+00 1* 1.000000E+01 /
103 49 69 GAS 0.000000E+00 1* 1.000000E+01 /
103 50 69 GAS 0.000000E+00 1* 1.000000E+01 /
103 51 69 GAS 0.000000E+00 1* 1.000000E+01 /
103 52 69 GAS 0.000000E+00 1* 1.000000E+01 /
103 53 69 GAS 0.000000E+00 1* 1.000000E+01 /
103 54 69 GAS 0.000000E+00 1* 1.000000E+01 /
103 55 69 GAS 0.000000E+00 1* 1.000000E+01 /
103 56 69 GAS 0.000000E+00 1* 1.000000E+01 /
103 57 69 GAS 0.000000E+00 1* 1.000000E+01 /
103 58 69 GAS 0.000000E+00 1* 1.000000E+01 /
103 59 69 GAS 0.000000E+00 1* 1.000000E+01 /
103 60 69 GAS 0.000000E+00 1* 1.000000E+01 /
103 61 69 GAS 0.000000E+00 1* 1.000000E+01 /
103 62 69 GAS 0.000000E+00 1* 1.000000E+01 /
103 63 69 GAS 0.000000E+00 1* 1.000000E+01 /
103 64 69 GAS 0.000000E+00 1* 1.000000E+01 /
103 65 69 GAS 0.000000E+00 1* 1.000000E+01 /
103 66 69 GAS 0.000000E+00 1* 1.000000E+01 /
103 67 69 GAS 0.000000E+00 1* 1.000000E+01 /
103 68 69 GAS 0.000000E+00 1* 1.000000E+01 /
103 69 69 GAS 0.000000E+00 1* 1.000000E+01 /
103 70 69 GAS 0.000000E+00 1* 1.000000E+01 /
103 71 69 GAS 0.000000E+00 1* 1.000000E+01 /
103 72 69 GAS 0.000000E+00 1* 1.000000E+01 /
103 73 69 GAS 0.000000E+00 1* 1.000000E+01 /
103 74 69 GAS 0.000000E+00 1* 1.000000E+01 /
103 75 69 GAS 0.000000E+00 1* 1.000000E+01 /
103 76 69 GAS 0.000000E+00 1* 1.000000E+01 /
103 77 69 GAS 0.000000E+00 1* 1.000000E+01 /
103 78 69 GAS 0.000000E+00 1* 1.000000E+01 /
103 79 69 GAS 0.000000E+00 1* 1.000000E+01 /
103 80 69 GAS 0.000000E+00 1* 1.000000E+01 /
103 81 69 GAS 0.000000E+00 1* 1.000000E+01 /
/
TSTEP
364963.5 /

TUNING
0.01 36.5 /
/
/
SOURCE
55 21 135 GAS 0.000000E+00 1* 1.000000E+01 /
55 22 136 GAS 0.000000E+00 1* 1.000000E+01 /
55 23 136 GAS 0.000000E+00 1* 1.000000E+01 /
55 24 136 GAS 0.000000E+00 1* 1.000000E+01 /
55 25 136 GAS 0.000000E+00 1* 1.000000E+01 /
55 26 137 GAS 0.000000E+00 1* 1.000000E+01 /
55 27 137 GAS 0.000000E+00 1* 1.000000E+01 /
55 28 137 GAS 0.000000E+00 1* 1.000000E+01 /
55 29 137 GAS 0.000000E+00 1* 1.000000E+01 /
55 30 138 GAS 0.000000E+00 1* 1.000000E+01 /
55 31 138 GAS 0.000000E+00 1* 1.000000E+01 /
55 32 138 GAS 0.000000E+00 1* 1.000000E+01 /
55 33 138 GAS 0.000000E+00 1* 1.000000E+01 /
55 34 139 GAS 0.000000E+00 1* 1.000000E+01 /
55 35 139 GAS 0.000000E+00 1* 1.000000E+01 /
55 36 139 GAS 0.000000E+00 1* 1.000000E+01 /
55 37 139 GAS 0.000000E+00 1* 1.000000E+01 /
55 38 139 GAS 0.000000E+00 1* 1.000000E+01 /
55 39 139 GAS 0.000000E+00 1* 1.000000E+01 /
55 40 139 GAS 0.000000E+00 1* 1.000000E+01 /
55 41 140 GAS 0.000000E+00 1* 1.000000E+01 /
55 42 140 GAS 0.000000E+00 1* 1.000000E+01 /
55 43 140 GAS 0.000000E+00 1* 1.000000E+01 /
55 44 140 GAS 0.000000E+00 1* 1.000000E+01 /
55 45 140 GAS 0.000000E+00 1* 1.000000E+01 /
55 46 140 GAS 0.000000E+00 1* 1.000000E+01 /
55 47 140 GAS 0.000000E+00 1* 1.000000E+01 /
55 48 140 GAS 0.000000E+00 1* 1.000000E+01 /
55 49 140 GAS 0.000000E+00 1* 1.000000E+01 /
55 50 140 GAS 0.000000E+00 1* 1.000000E+01 /
55 51 140 GAS 0.000000E+00 1* 1.000000E+01 /
55 52 140 GAS 0.000000E+00 1* 1.000000E+01 /
55 53 140 GAS 0.000000E+00 1* 1.000000E+01 /
55 54 140 GAS 0.000000E+00 1* 1.000000E+01 /
55 55 140 GAS 0.000000E+00 1* 1.000000E+01 /
55 56 140 GAS 0.000000E+00 1* 1.000000E+01 /
55 57 140 GAS 0.000000E+00 1* 1.000000E+01 /
55 58 140 GAS 0.000000E+00 1* 1.000000E+01 /
55 59 140 GAS 0.000000E+00 1* 1.000000E+01 /
55 60 140 GAS 0.000000E+00 1* 1.000000E+01 /
55 61 140 GAS 0.000000E+00 1* 1.000000E+01 /
55 62 139 GAS 0.000000E+00 1* 1.000000E+01 /
55 63 139 GAS 0.000000E+00 1* 1.000000E+01 /
55 64 139 GAS 0.000000E+00 1* 1.000000E+01 /
55 65 139 GAS 0.000000E+00 1* 1.000000E+01 /
55 66 139 GAS 0.000000E+00 1* 1.000000E+01 /
55 67 139 GAS 0.000000E+00 1* 1.000000E+01 /
55 68 138 GAS 0.000000E+00 1* 1.000000E+01 /
55 69 138 GAS 0.000000E+00 1* 1.000000E+01 /
55 70 138 GAS 0.000000E+00 1* 1.000000E+01 /
55 71 138 GAS 0.000000E+00 1* 1.000000E+01 /
55 72 138 GAS 0.000000E+00 1* 1.000000E+01 /
55 73 137 GAS 0.000000E+00 1* 1.000000E+01 /
55 74 137 GAS 0.000000E+00 1* 1.000000E+01 /
55 75 137 GAS 0.000000E+00 1* 1.000000E+01 /
55 76 137 GAS 0.000000E+00 1* 1.000000E+01 /
55 77 136 GAS 0.000000E+00 1* 1.000000E+01 /
55 78 136 GAS 0.000000E+00 1* 1.000000E+01 /
55 79 136 GAS 0.000000E+00 1* 1.000000E+01 /
55 80 135 GAS 0.000000E+00 1* 1.000000E+01 /
55 81 135 GAS 0.000000E+00 1* 1.000000E+01 /
103 21 69 GAS 0.000000E+00 1* 1.000000E+01 /
103 22 69 GAS 0.000000E+00 1* 1.000000E+01 /
103 23 69 GAS 0.000000E+00 1* 1.000000E+01 /
103 24 69 GAS 0.000000E+00 1* 1.000000E+01 /
103 25 69 GAS 0.000000E+00 1* 1.000000E+01 /
103 26 69 GAS 0.000000E+00 1* 1.000000E+01 /
103 27 69 GAS 0.000000E+00 1* 1.000000E+01 /
103 28 69 GAS 0.000000E+00 1* 1.000000E+01 /
103 29 69 GAS 0.000000E+00 1* 1.000000E+01 /
103 30 69 GAS 0.000000E+00 1* 1.000000E+01 /
103 31 69 GAS 0.000000E+00 1* 1.000000E+01 /
103 32 69 GAS 0.000000E+00 1* 1.000000E+01 /
103 33 69 GAS 0.000000E+00 1* 1.000000E+01 /
103 34 69 GAS 0.000000E+00 1* 1.000000E+01 /
103 35 69 GAS 0.000000E+00 1* 1.000000E+01 /
103 36 69 GAS 0.000000E+00 1* 1.000000E+01 /
103 37 69 GAS 0.000000E+00 1* 1.000000E+01 /
103 38 69 GAS 0.000000E+00 1* 1.000000E+01 /
103 39 69 GAS 0.000000E+00 1* 1.000000E+01 /
103 40 69 GAS 0.000000E+00 1* 1.000000E+01 /
103 41 69 GAS 0.000000E+00 1* 1.000000E+01 /
103 42 69 GAS 0.000000E+00 1* 1.000000E+01 /
103 43 69 GAS 0.000000E+00 1* 1.000000E+01 /
103 44 69 GAS 0.000000E+00 1* 1.000000E+01 /
103 45 69 GAS 0.000000E+00 1* 1.000000E+01 /
103 46 69 GAS 0.000000E+00 1* 1.000000E+01 /
103 47 69 GAS 0.000000E+00 1* 1.000000E+01 /
103 48 69 GAS 0.000000E+00 1* 1.000000E+01 /
103 49 69 GAS 0.000000E+00 1* 1.000000E+01 /
103 50 69 GAS 0.000000E+00 1* 1.000000E+01 /
103 51 69 GAS 0.000000E+00 1* 1.000000E+01 /
103 52 69 GAS 0.000000E+00 1* 1.000000E+01 /
103 53 69 GAS 0.000000E+00 1* 1.000000E+01 /
103 54 69 GAS 0.000000E+00 1* 1.000000E+01 /
103 55 69 GAS 0.000000E+00 1* 1.000000E+01 /
103 56 69 GAS 0.000000E+00 1* 1.000000E+01 /
103 57 69 GAS 0.000000E+00 1* 1.000000E+01 /
103 58 69 GAS 0.000000E+00 1* 1.000000E+01 /
103 59 69 GAS 0.000000E+00 1* 1.000000E+01 /
103 60 69 GAS 0.000000E+00 1* 1.000000E+01 /
103 61 69 GAS 0.000000E+00 1* 1.000000E+01 /
103 62 69 GAS 0.000000E+00 1* 1.000000E+01 /
103 63 69 GAS 0.000000E+00 1* 1.000000E+01 /
103 64 69 GAS 0.000000E+00 1* 1.000000E+01 /
103 65 69 GAS 0.000000E+00 1* 1.000000E+01 /
103 66 69 GAS 0.000000E+00 1* 1.000000E+01 /
103 67 69 GAS 0.000000E+00 1* 1.000000E+01 /
103 68 69 GAS 0.000000E+00 1* 1.000000E+01 /
103 69 69 GAS 0.000000E+00 1* 1.000000E+01 /
103 70 69 GAS 0.000000E+00 1* 1.000000E+01 /
103 71 69 GAS 0.000000E+00 1* 1.000000E+01 /
103 72 69 GAS 0.000000E+00 1* 1.000000E+01 /
103 73 69 GAS 0.000000E+00 1* 1.000000E+01 /
103 74 69 GAS 0.000000E+00 1* 1.000000E+01 /
103 75 69 GAS 0.000000E+00 1* 1.000000E+01 /
103 76 69 GAS 0.000000E+00 1* 1.000000E+01 /
103 77 69 GAS 0.000000E+00 1* 1.000000E+01 /
103 78 69 GAS 0.000000E+00 1* 1.000000E+01 /
103 79 69 GAS 0.000000E+00 1* 1.000000E+01 /
103 80 69 GAS 0.000000E+00 1* 1.000000E+01 /
103 81 69 GAS 0.000000E+00 1* 1.000000E+01 /
/
TSTEP
36.5 /

TUNING
0.01 365 /
/
/
SOURCE
55 21 135 GAS 7.081967E+04 1* 1.000000E+01 /
55 22 136 GAS 7.081967E+04 1* 1.000000E+01 /
55 23 136 GAS 7.081967E+04 1* 1.000000E+01 /
55 24 136 GAS 7.081967E+04 1* 1.000000E+01 /
55 25 136 GAS 7.081967E+04 1* 1.000000E+01 /
55 26 137 GAS 7.081967E+04 1* 1.000000E+01 /
55 27 137 GAS 7.081967E+04 1* 1.000000E+01 /
55 28 137 GAS 7.081967E+04 1* 1.000000E+01 /
55 29 137 GAS 7.081967E+04 1* 1.000000E+01 /
55 30 138 GAS 7.081967E+04 1* 1.000000E+01 /
55 31 138 GAS 7.081967E+04 1* 1.000000E+01 /
55 32 138 GAS 7.081967E+04 1* 1.000000E+01 /
55 33 138 GAS 7.081967E+04 1* 1.000000E+01 /
55 34 139 GAS 7.081967E+04 1* 1.000000E+01 /
55 35 139 GAS 7.081967E+04 1* 1.000000E+01 /
55 36 139 GAS 7.081967E+04 1* 1.000000E+01 /
55 37 139 GAS 7.081967E+04 1* 1.000000E+01 /
55 38 139 GAS 7.081967E+04 1* 1.000000E+01 /
55 39 139 GAS 7.081967E+04 1* 1.000000E+01 /
55 40 139 GAS 7.081967E+04 1* 1.000000E+01 /
55 41 140 GAS 7.081967E+04 1* 1.000000E+01 /
55 42 140 GAS 7.081967E+04 1* 1.000000E+01 /
55 43 140 GAS 7.081967E+04 1* 1.000000E+01 /
55 44 140 GAS 7.081967E+04 1* 1.000000E+01 /
55 45 140 GAS 7.081967E+04 1* 1.000000E+01 /
55 46 140 GAS 7.081967E+04 1* 1.000000E+01 /
55 47 140 GAS 7.081967E+04 1* 1.000000E+01 /
55 48 140 GAS 7.081967E+04 1* 1.000000E+01 /
55 49 140 GAS 7.081967E+04 1* 1.000000E+01 /
55 50 140 GAS 7.081967E+04 1* 1.000000E+01 /
55 51 140 GAS 7.081967E+04 1* 1.000000E+01 /
55 52 140 GAS 7.081967E+04 1* 1.000000E+01 /
55 53 140 GAS 7.081967E+04 1* 1.000000E+01 /
55 54 140 GAS 7.081967E+04 1* 1.000000E+01 /
55 55 140 GAS 7.081967E+04 1* 1.000000E+01 /
55 56 140 GAS 7.081967E+04 1* 1.000000E+01 /
55 57 140 GAS 7.081967E+04 1* 1.000000E+01 /
55 58 140 GAS 7.081967E+04 1* 1.000000E+01 /
55 59 140 GAS 7.081967E+04 1* 1.000000E+01 /
55 60 140 GAS 7.081967E+04 1* 1.000000E+01 /
55 61 140 GAS 7.081967E+04 1* 1.000000E+01 /
55 62 139 GAS 7.081967E+04 1* 1.000000E+01 /
55 63 139 GAS 7.081967E+04 1* 1.000000E+01 /
55 64 139 GAS 7.081967E+04 1* 1.000000E+01 /
55 65 139 GAS 7.081967E+04 1* 1.000000E+01 /
55 66 139 GAS 7.081967E+04 1* 1.000000E+01 /
55 67 139 GAS 7.081967E+04 1* 1.000000E+01 /
55 68 138 GAS 7.081967E+04 1* 1.000000E+01 /
55 69 138 GAS 7.081967E+04 1* 1.000000E+01 /
55 70 138 GAS 7.081967E+04 1* 1.000000E+01 /
55 71 138 GAS 7.081967E+04 1* 1.000000E+01 /
55 72 138 GAS 7.081967E+04 1* 1.000000E+01 /
55 73 137 GAS 7.081967E+04 1* 1.000000E+01 /
55 74 137 GAS 7.081967E+04 1* 1.000000E+01 /
55 75 137 GAS 7.081967E+04 1* 1.000000E+01 /
55 76 137 GAS 7.081967E+04 1* 1.000000E+01 /
55 77 136 GAS 7.081967E+04 1* 1.000000E+01 /
55 78 136 GAS 7.081967E+04 1* 1.000000E+01 /
55 79 136 GAS 7.081967E+04 1* 1.000000E+01 /
55 80 135 GAS 7.081967E+04 1* 1.000000E+01 /
55 81 135 GAS 7.081967E+04 1* 1.000000E+01 /
103 21 69 GAS 0.000000E+00 1* 1.000000E+01 /
103 22 69 GAS 0.000000E+00 1* 1.000000E+01 /
103 23 69 GAS 0.000000E+00 1* 1.000000E+01 /
103 24 69 GAS 0.000000E+00 1* 1.000000E+01 /
103 25 69 GAS 0.000000E+00 1* 1.000000E+01 /
103 26 69 GAS 0.000000E+00 1* 1.000000E+01 /
103 27 69 GAS 0.000000E+00 1* 1.000000E+01 /
103 28 69 GAS 0.000000E+00 1* 1.000000E+01 /
103 29 69 GAS 0.000000E+00 1* 1.000000E+01 /
103 30 69 GAS 0.000000E+00 1* 1.000000E+01 /
103 31 69 GAS 0.000000E+00 1* 1.000000E+01 /
103 32 69 GAS 0.000000E+00 1* 1.000000E+01 /
103 33 69 GAS 0.000000E+00 1* 1.000000E+01 /
103 34 69 GAS 0.000000E+00 1* 1.000000E+01 /
103 35 69 GAS 0.000000E+00 1* 1.000000E+01 /
103 36 69 GAS 0.000000E+00 1* 1.000000E+01 /
103 37 69 GAS 0.000000E+00 1* 1.000000E+01 /
103 38 69 GAS 0.000000E+00 1* 1.000000E+01 /
103 39 69 GAS 0.000000E+00 1* 1.000000E+01 /
103 40 69 GAS 0.000000E+00 1* 1.000000E+01 /
103 41 69 GAS 0.000000E+00 1* 1.000000E+01 /
103 42 69 GAS 0.000000E+00 1* 1.000000E+01 /
103 43 69 GAS 0.000000E+00 1* 1.000000E+01 /
103 44 69 GAS 0.000000E+00 1* 1.000000E+01 /
103 45 69 GAS 0.000000E+00 1* 1.000000E+01 /
103 46 69 GAS 0.000000E+00 1* 1.000000E+01 /
103 47 69 GAS 0.000000E+00 1* 1.000000E+01 /
103 48 69 GAS 0.000000E+00 1* 1.000000E+01 /
103 49 69 GAS 0.000000E+00 1* 1.000000E+01 /
103 50 69 GAS 0.000000E+00 1* 1.000000E+01 /
103 51 69 GAS 0.000000E+00 1* 1.000000E+01 /
103 52 69 GAS 0.000000E+00 1* 1.000000E+01 /
103 53 69 GAS 0.000000E+00 1* 1.000000E+01 /
103 54 69 GAS 0.000000E+00 1* 1.000000E+01 /
103 55 69 GAS 0.000000E+00 1* 1.000000E+01 /
103 56 69 GAS 0.000000E+00 1* 1.000000E+01 /
103 57 69 GAS 0.000000E+00 1* 1.000000E+01 /
103 58 69 GAS 0.000000E+00 1* 1.000000E+01 /
103 59 69 GAS 0.000000E+00 1* 1.000000E+01 /
103 60 69 GAS 0.000000E+00 1* 1.000000E+01 /
103 61 69 GAS 0.000000E+00 1* 1.000000E+01 /
103 62 69 GAS 0.000000E+00 1* 1.000000E+01 /
103 63 69 GAS 0.000000E+00 1* 1.000000E+01 /
103 64 69 GAS 0.000000E+00 1* 1.000000E+01 /
103 65 69 GAS 0.000000E+00 1* 1.000000E+01 /
103 66 69 GAS 0.000000E+00 1* 1.000000E+01 /
103 67 69 GAS 0.000000E+00 1* 1.000000E+01 /
103 68 69 GAS 0.000000E+00 1* 1.000000E+01 /
103 69 69 GAS 0.000000E+00 1* 1.000000E+01 /
103 70 69 GAS 0.000000E+00 1* 1.000000E+01 /
103 71 69 GAS 0.000000E+00 1* 1.000000E+01 /
103 72 69 GAS 0.000000E+00 1* 1.000000E+01 /
103 73 69 GAS 0.000000E+00 1* 1.000000E+01 /
103 74 69 GAS 0.000000E+00 1* 1.000000E+01 /
103 75 69 GAS 0.000000E+00 1* 1.000000E+01 /
103 76 69 GAS 0.000000E+00 1* 1.000000E+01 /
103 77 69 GAS 0.000000E+00 1* 1.000000E+01 /
103 78 69 GAS 0.000000E+00 1* 1.000000E+01 /
103 79 69 GAS 0.000000E+00 1* 1.000000E+01 /
103 80 69 GAS 0.000000E+00 1* 1.000000E+01 /
103 81 69 GAS 0.000000E+00 1* 1.000000E+01 /
/
TSTEP
5*1825.0 /

TUNING
0.01 109.5 /
/
/
SOURCE
55 21 135 GAS 7.081967E+04 1* 1.000000E+01 /
55 22 136 GAS 7.081967E+04 1* 1.000000E+01 /
55 23 136 GAS 7.081967E+04 1* 1.000000E+01 /
55 24 136 GAS 7.081967E+04 1* 1.000000E+01 /
55 25 136 GAS 7.081967E+04 1* 1.000000E+01 /
55 26 137 GAS 7.081967E+04 1* 1.000000E+01 /
55 27 137 GAS 7.081967E+04 1* 1.000000E+01 /
55 28 137 GAS 7.081967E+04 1* 1.000000E+01 /
55 29 137 GAS 7.081967E+04 1* 1.000000E+01 /
55 30 138 GAS 7.081967E+04 1* 1.000000E+01 /
55 31 138 GAS 7.081967E+04 1* 1.000000E+01 /
55 32 138 GAS 7.081967E+04 1* 1.000000E+01 /
55 33 138 GAS 7.081967E+04 1* 1.000000E+01 /
55 34 139 GAS 7.081967E+04 1* 1.000000E+01 /
55 35 139 GAS 7.081967E+04 1* 1.000000E+01 /
55 36 139 GAS 7.081967E+04 1* 1.000000E+01 /
55 37 139 GAS 7.081967E+04 1* 1.000000E+01 /
55 38 139 GAS 7.081967E+04 1* 1.000000E+01 /
55 39 139 GAS 7.081967E+04 1* 1.000000E+01 /
55 40 139 GAS 7.081967E+04 1* 1.000000E+01 /
55 41 140 GAS 7.081967E+04 1* 1.000000E+01 /
55 42 140 GAS 7.081967E+04 1* 1.000000E+01 /
55 43 140 GAS 7.081967E+04 1* 1.000000E+01 /
55 44 140 GAS 7.081967E+04 1* 1.000000E+01 /
55 45 140 GAS 7.081967E+04 1* 1.000000E+01 /
55 46 140 GAS 7.081967E+04 1* 1.000000E+01 /
55 47 140 GAS 7.081967E+04 1* 1.000000E+01 /
55 48 140 GAS 7.081967E+04 1* 1.000000E+01 /
55 49 140 GAS 7.081967E+04 1* 1.000000E+01 /
55 50 140 GAS 7.081967E+04 1* 1.000000E+01 /
55 51 140 GAS 7.081967E+04 1* 1.000000E+01 /
55 52 140 GAS 7.081967E+04 1* 1.000000E+01 /
55 53 140 GAS 7.081967E+04 1* 1.000000E+01 /
55 54 140 GAS 7.081967E+04 1* 1.000000E+01 /
55 55 140 GAS 7.081967E+04 1* 1.000000E+01 /
55 56 140 GAS 7.081967E+04 1* 1.000000E+01 /
55 57 140 GAS 7.081967E+04 1* 1.000000E+01 /
55 58 140 GAS 7.081967E+04 1* 1.000000E+01 /
55 59 140 GAS 7.081967E+04 1* 1.000000E+01 /
55 60 140 GAS 7.081967E+04 1* 1.000000E+01 /
55 61 140 GAS 7.081967E+04 1* 1.000000E+01 /
55 62 139 GAS 7.081967E+04 1* 1.000000E+01 /
55 63 139 GAS 7.081967E+04 1* 1.000000E+01 /
55 64 139 GAS 7.081967E+04 1* 1.000000E+01 /
55 65 139 GAS 7.081967E+04 1* 1.000000E+01 /
55 66 139 GAS 7.081967E+04 1* 1.000000E+01 /
55 67 139 GAS 7.081967E+04 1* 1.000000E+01 /
55 68 138 GAS 7.081967E+04 1* 1.000000E+01 /
55 69 138 GAS 7.081967E+04 1* 1.000000E+01 /
55 70 138 GAS 7.081967E+04 1* 1.000000E+01 /
55 71 138 GAS 7.081967E+04 1* 1.000000E+01 /
55 72 138 GAS 7.081967E+04 1* 1.000000E+01 /
55 73 137 GAS 7.081967E+04 1* 1.000000E+01 /
55 74 137 GAS 7.081967E+04 1* 1.000000E+01 /
55 75 137 GAS 7.081967E+04 1* 1.000000E+01 /
55 76 137 GAS 7.081967E+04 1* 1.000000E+01 /
55 77 136 GAS 7.081967E+04 1* 1.000000E+01 /
55 78 136 GAS 7.081967E+04 1* 1.000000E+01 /
55 79 136 GAS 7.081967E+04 1* 1.000000E+01 /
55 80 135 GAS 7.081967E+04 1* 1.000000E+01 /
55 81 135 GAS 7.081967E+04 1* 1.000000E+01 /
103 21 69 GAS 7.081967E+04 1* 1.000000E+01 /
103 22 69 GAS 7.081967E+04 1* 1.000000E+01 /
103 23 69 GAS 7.081967E+04 1* 1.000000E+01 /
103 24 69 GAS 7.081967E+04 1* 1.000000E+01 /
103 25 69 GAS 7.081967E+04 1* 1.000000E+01 /
103 26 69 GAS 7.081967E+04 1* 1.000000E+01 /
103 27 69 GAS 7.081967E+04 1* 1.000000E+01 /
103 28 69 GAS 7.081967E+04 1* 1.000000E+01 /
103 29 69 GAS 7.081967E+04 1* 1.000000E+01 /
103 30 69 GAS 7.081967E+04 1* 1.000000E+01 /
103 31 69 GAS 7.081967E+04 1* 1.000000E+01 /
103 32 69 GAS 7.081967E+04 1* 1.000000E+01 /
103 33 69 GAS 7.081967E+04 1* 1.000000E+01 /
103 34 69 GAS 7.081967E+04 1* 1.000000E+01 /
103 35 69 GAS 7.081967E+04 1* 1.000000E+01 /
103 36 69 GAS 7.081967E+04 1* 1.000000E+01 /
103 37 69 GAS 7.081967E+04 1* 1.000000E+01 /
103 38 69 GAS 7.081967E+04 1* 1.000000E+01 /
103 39 69 GAS 7.081967E+04 1* 1.000000E+01 /
103 40 69 GAS 7.081967E+04 1* 1.000000E+01 /
103 41 69 GAS 7.081967E+04 1* 1.000000E+01 /
103 42 69 GAS 7.081967E+04 1* 1.000000E+01 /
103 43 69 GAS 7.081967E+04 1* 1.000000E+01 /
103 44 69 GAS 7.081967E+04 1* 1.000000E+01 /
103 45 69 GAS 7.081967E+04 1* 1.000000E+01 /
103 46 69 GAS 7.081967E+04 1* 1.000000E+01 /
103 47 69 GAS 7.081967E+04 1* 1.000000E+01 /
103 48 69 GAS 7.081967E+04 1* 1.000000E+01 /
103 49 69 GAS 7.081967E+04 1* 1.000000E+01 /
103 50 69 GAS 7.081967E+04 1* 1.000000E+01 /
103 51 69 GAS 7.081967E+04 1* 1.000000E+01 /
103 52 69 GAS 7.081967E+04 1* 1.000000E+01 /
103 53 69 GAS 7.081967E+04 1* 1.000000E+01 /
103 54 69 GAS 7.081967E+04 1* 1.000000E+01 /
103 55 69 GAS 7.081967E+04 1* 1.000000E+01 /
103 56 69 GAS 7.081967E+04 1* 1.000000E+01 /
103 57 69 GAS 7.081967E+04 1* 1.000000E+01 /
103 58 69 GAS 7.081967E+04 1* 1.000000E+01 /
103 59 69 GAS 7.081967E+04 1* 1.000000E+01 /
103 60 69 GAS 7.081967E+04 1* 1.000000E+01 /
103 61 69 GAS 7.081967E+04 1* 1.000000E+01 /
103 62 69 GAS 7.081967E+04 1* 1.000000E+01 /
103 63 69 GAS 7.081967E+04 1* 1.000000E+01 /
103 64 69 GAS 7.081967E+04 1* 1.000000E+01 /
103 65 69 GAS 7.081967E+04 1* 1.000000E+01 /
103 66 69 GAS 7.081967E+04 1* 1.000000E+01 /
103 67 69 GAS 7.081967E+04 1* 1.000000E+01 /
103 68 69 GAS 7.081967E+04 1* 1.000000E+01 /
103 69 69 GAS 7.081967E+04 1* 1.000000E+01 /
103 70 69 GAS 7.081967E+04 1* 1.000000E+01 /
103 71 69 GAS 7.081967E+04 1* 1.000000E+01 /
103 72 69 GAS 7.081967E+04 1* 1.000000E+01 /
103 73 69 GAS 7.081967E+04 1* 1.000000E+01 /
103 74 69 GAS 7.081967E+04 1* 1.000000E+01 /
103 75 69 GAS 7.081967E+04 1* 1.000000E+01 /
103 76 69 GAS 7.081967E+04 1* 1.000000E+01 /
103 77 69 GAS 7.081967E+04 1* 1.000000E+01 /
103 78 69 GAS 7.081967E+04 1* 1.000000E+01 /
103 79 69 GAS 7.081967E+04 1* 1.000000E+01 /
103 80 69 GAS 7.081967E+04 1* 1.000000E+01 /
103 81 69 GAS 7.081967E+04 1* 1.000000E+01 /
/
TSTEP
5*1825.0 /

TUNING
0.01 182.5 /
/
/
SOURCE
55 21 135 GAS 0.000000E+00 1* 1.000000E+01 /
55 22 136 GAS 0.000000E+00 1* 1.000000E+01 /
55 23 136 GAS 0.000000E+00 1* 1.000000E+01 /
55 24 136 GAS 0.000000E+00 1* 1.000000E+01 /
55 25 136 GAS 0.000000E+00 1* 1.000000E+01 /
55 26 137 GAS 0.000000E+00 1* 1.000000E+01 /
55 27 137 GAS 0.000000E+00 1* 1.000000E+01 /
55 28 137 GAS 0.000000E+00 1* 1.000000E+01 /
55 29 137 GAS 0.000000E+00 1* 1.000000E+01 /
55 30 138 GAS 0.000000E+00 1* 1.000000E+01 /
55 31 138 GAS 0.000000E+00 1* 1.000000E+01 /
55 32 138 GAS 0.000000E+00 1* 1.000000E+01 /
55 33 138 GAS 0.000000E+00 1* 1.000000E+01 /
55 34 139 GAS 0.000000E+00 1* 1.000000E+01 /
55 35 139 GAS 0.000000E+00 1* 1.000000E+01 /
55 36 139 GAS 0.000000E+00 1* 1.000000E+01 /
55 37 139 GAS 0.000000E+00 1* 1.000000E+01 /
55 38 139 GAS 0.000000E+00 1* 1.000000E+01 /
55 39 139 GAS 0.000000E+00 1* 1.000000E+01 /
55 40 139 GAS 0.000000E+00 1* 1.000000E+01 /
55 41 140 GAS 0.000000E+00 1* 1.000000E+01 /
55 42 140 GAS 0.000000E+00 1* 1.000000E+01 /
55 43 140 GAS 0.000000E+00 1* 1.000000E+01 /
55 44 140 GAS 0.000000E+00 1* 1.000000E+01 /
55 45 140 GAS 0.000000E+00 1* 1.000000E+01 /
55 46 140 GAS 0.000000E+00 1* 1.000000E+01 /
55 47 140 GAS 0.000000E+00 1* 1.000000E+01 /
55 48 140 GAS 0.000000E+00 1* 1.000000E+01 /
55 49 140 GAS 0.000000E+00 1* 1.000000E+01 /
55 50 140 GAS 0.000000E+00 1* 1.000000E+01 /
55 51 140 GAS 0.000000E+00 1* 1.000000E+01 /
55 52 140 GAS 0.000000E+00 1* 1.000000E+01 /
55 53 140 GAS 0.000000E+00 1* 1.000000E+01 /
55 54 140 GAS 0.000000E+00 1* 1.000000E+01 /
55 55 140 GAS 0.000000E+00 1* 1.000000E+01 /
55 56 140 GAS 0.000000E+00 1* 1.000000E+01 /
55 57 140 GAS 0.000000E+00 1* 1.000000E+01 /
55 58 140 GAS 0.000000E+00 1* 1.000000E+01 /
55 59 140 GAS 0.000000E+00 1* 1.000000E+01 /
55 60 140 GAS 0.000000E+00 1* 1.000000E+01 /
55 61 140 GAS 0.000000E+00 1* 1.000000E+01 /
55 62 139 GAS 0.000000E+00 1* 1.000000E+01 /
55 63 139 GAS 0.000000E+00 1* 1.000000E+01 /
55 64 139 GAS 0.000000E+00 1* 1.000000E+01 /
55 65 139 GAS 0.000000E+00 1* 1.000000E+01 /
55 66 139 GAS 0.000000E+00 1* 1.000000E+01 /
55 67 139 GAS 0.000000E+00 1* 1.000000E+01 /
55 68 138 GAS 0.000000E+00 1* 1.000000E+01 /
55 69 138 GAS 0.000000E+00 1* 1.000000E+01 /
55 70 138 GAS 0.000000E+00 1* 1.000000E+01 /
55 71 138 GAS 0.000000E+00 1* 1.000000E+01 /
55 72 138 GAS 0.000000E+00 1* 1.000000E+01 /
55 73 137 GAS 0.000000E+00 1* 1.000000E+01 /
55 74 137 GAS 0.000000E+00 1* 1.000000E+01 /
55 75 137 GAS 0.000000E+00 1* 1.000000E+01 /
55 76 137 GAS 0.000000E+00 1* 1.000000E+01 /
55 77 136 GAS 0.000000E+00 1* 1.000000E+01 /
55 78 136 GAS 0.000000E+00 1* 1.000000E+01 /
55 79 136 GAS 0.000000E+00 1* 1.000000E+01 /
55 80 135 GAS 0.000000E+00 1* 1.000000E+01 /
55 81 135 GAS 0.000000E+00 1* 1.000000E+01 /
103 21 69 GAS 0.000000E+00 1* 1.000000E+01 /
103 22 69 GAS 0.000000E+00 1* 1.000000E+01 /
103 23 69 GAS 0.000000E+00 1* 1.000000E+01 /
103 24 69 GAS 0.000000E+00 1* 1.000000E+01 /
103 25 69 GAS 0.000000E+00 1* 1.000000E+01 /
103 26 69 GAS 0.000000E+00 1* 1.000000E+01 /
103 27 69 GAS 0.000000E+00 1* 1.000000E+01 /
103 28 69 GAS 0.000000E+00 1* 1.000000E+01 /
103 29 69 GAS 0.000000E+00 1* 1.000000E+01 /
103 30 69 GAS 0.000000E+00 1* 1.000000E+01 /
103 31 69 GAS 0.000000E+00 1* 1.000000E+01 /
103 32 69 GAS 0.000000E+00 1* 1.000000E+01 /
103 33 69 GAS 0.000000E+00 1* 1.000000E+01 /
103 34 69 GAS 0.000000E+00 1* 1.000000E+01 /
103 35 69 GAS 0.000000E+00 1* 1.000000E+01 /
103 36 69 GAS 0.000000E+00 1* 1.000000E+01 /
103 37 69 GAS 0.000000E+00 1* 1.000000E+01 /
103 38 69 GAS 0.000000E+00 1* 1.000000E+01 /
103 39 69 GAS 0.000000E+00 1* 1.000000E+01 /
103 40 69 GAS 0.000000E+00 1* 1.000000E+01 /
103 41 69 GAS 0.000000E+00 1* 1.000000E+01 /
103 42 69 GAS 0.000000E+00 1* 1.000000E+01 /
103 43 69 GAS 0.000000E+00 1* 1.000000E+01 /
103 44 69 GAS 0.000000E+00 1* 1.000000E+01 /
103 45 69 GAS 0.000000E+00 1* 1.000000E+01 /
103 46 69 GAS 0.000000E+00 1* 1.000000E+01 /
103 47 69 GAS 0.000000E+00 1* 1.000000E+01 /
103 48 69 GAS 0.000000E+00 1* 1.000000E+01 /
103 49 69 GAS 0.000000E+00 1* 1.000000E+01 /
103 50 69 GAS 0.000000E+00 1* 1.000000E+01 /
103 51 69 GAS 0.000000E+00 1* 1.000000E+01 /
103 52 69 GAS 0.000000E+00 1* 1.000000E+01 /
103 53 69 GAS 0.000000E+00 1* 1.000000E+01 /
103 54 69 GAS 0.000000E+00 1* 1.000000E+01 /
103 55 69 GAS 0.000000E+00 1* 1.000000E+01 /