-- Copyright (C) 2023 NORCE
-- This deck was generated by pyopmspe11 https://github.com/OPM/pyopmspe11
----------------------------------------------------------------------------
RUNSPEC
----------------------------------------------------------------------------
DIMENS 
280 1 120 /

EQLDIMS
/

TABDIMS
7 /

WATER
GAS
CO2STORE
DISGASW
VAPWAT
DIFFUSE

METRIC

START
1 JAN 2025 /

UNIFOUT
----------------------------------------------------------------------------
GRID
----------------------------------------------------------------------------
INIT

DX 
33600*0.01 /

DY 
33600*0.01 /

DZ 
33600*0.01 /

TOPS
280*0.0 /

INCLUDE
'FLUXNUM.INC' /

DISPERC
33600*0 /

EQUALREG
PORO    4.400000E-01 1 F /
PORO    4.300000E-01 2 F /
PORO    4.400000E-01 3 F /
PORO    4.500000E-01 4 F /
PORO    4.300000E-01 5 F /
PORO    4.600000E-01 6 F /
PORO    0.000000E+00 7 F /
PERMX   4.453000E+04 1 F /
PERMX   5.066250E+05 2 F /
PERMX   1.013250E+06 3 F /
PERMX   2.026500E+06 4 F /
PERMX   4.053000E+06 5 F /
PERMX   1.013250E+07 6 F /
PERMX   0.000000E+00 7 F /
PERMY   4.453000E+04 1 F /
PERMY   5.066250E+05 2 F /
PERMY   1.013250E+06 3 F /
PERMY   2.026500E+06 4 F /
PERMY   4.053000E+06 5 F /
PERMY   1.013250E+07 6 F /
PERMY   0.000000E+00 7 F /
PERMZ   4.453000E+04 1 F /
PERMZ   5.066250E+05 2 F /
PERMZ   1.013250E+06 3 F /
PERMZ   2.026500E+06 4 F /
PERMZ   4.053000E+06 5 F /
PERMZ   1.013250E+07 6 F /
PERMZ   0.000000E+00 7 F /
DISPERC 1.000000E-02 1 F /
DISPERC 1.000000E-02 2 F /
DISPERC 1.000000E-02 3 F /
DISPERC 1.000000E-02 4 F /
DISPERC 1.000000E-02 5 F /
DISPERC 1.000000E-02 6 F /
DISPERC 0.000000E+00 7 F /
/

BCCON 
1 1 280 1 1 1 1 Z- /
/
----------------------------------------------------------------------------
PROPS
----------------------------------------------------------------------------
INCLUDE
'TABLES.INC' /

DIFFAWAT
8.64e-05 8.64e-05 /

DIFFAGAS
1.3823999999999999 1.3823999999999999 /

THCO2MIX
NONE NONE NONE /
----------------------------------------------------------------------------
REGIONS
----------------------------------------------------------------------------
COPY
FLUXNUM SATNUM /
/

INCLUDE
'FIPNUM.INC' /
----------------------------------------------------------------------------
SOLUTION
---------------------------------------------------------------------------
EQUIL
0.0 1.1 0 0 0 0 1 1 0 /

RPTRST
BASIC=2 DEN PCGW RSWSAT /

RTEMPVD
0   20.0
1.2 20.0 /
----------------------------------------------------------------------------
SUMMARY
----------------------------------------------------------------------------
PERFORMA
FGIP
FGIR
FGIT
RGKDI
/
RGKDM
/
RGIP
/
RWCD
/
WBHP
/
WGIR
/
WGIT
/
BWPR
150 1 70 /
170 1 10 /
/
----------------------------------------------------------------------------
SCHEDULE
----------------------------------------------------------------------------
RPTRST
BASIC=2 DEN PCGW RESIDUAL RSWSAT /

BCPROP
1 DIRICHLET WATER 1* 1.115 /
/

SOURCE
90 1 90 GAS 1.468800E-02 /
170 1 50 GAS 0.000000E+00 /
/
TSTEP
5*0.020833333333333332 /

SOURCE
90 1 90 GAS 1.468800E-02 /
170 1 50 GAS 1.468800E-02 /
/
TSTEP
5*0.020833333333333332 /

SOURCE
90 1 90 GAS 0.000000E+00 /
170 1 50 GAS 0.000000E+00 /
/
TSTEP
115*0.041666666666666664 /
