-- Copyright (C) 2023-2026 NORCE Research AS
-- This deck was generated by pyopmspe11 https://github.com/OPM/pyopmspe11
----------------------------------------------------------------------------
RUNSPEC
----------------------------------------------------------------------------
DIMENS 
842 1 120 /

EQLDIMS
/

TABDIMS
7 /

WATER
GAS
CO2STORE
DISGASW
VAPWAT
DIFFUSE
THERMAL

METRIC

START
1 JAN 2025 /

UNIFOUT
----------------------------------------------------------------------------
GRID
----------------------------------------------------------------------------
INIT

INCLUDE
DX.INC /

DY 
101040*1.0 /

DZ 
101040*10.0 /

TOPS
842*0 /

INCLUDE
FLUXNUM.INC /

DISPERC
101040*0 /

EQUALREG
PORO    1.000000E-01 1 F /
PORO    2.000000E-01 2 F /
PORO    2.000000E-01 3 F /
PORO    2.000000E-01 4 F /
PORO    2.500000E-01 5 F /
PORO    3.500000E-01 6 F /
PORO    1.000000E-06 7 F /
PERMX   1.013200E-01 1 F /
PERMX   1.013240E+02 2 F /
PERMX   2.026500E+02 3 F /
PERMX   5.066250E+02 4 F /
PERMX   1.013250E+03 5 F /
PERMX   2.026500E+03 6 F /
PERMX   1.000000E-05 7 F /
PERMY   1.013200E-01 1 F /
PERMY   1.013240E+02 2 F /
PERMY   2.026500E+02 3 F /
PERMY   5.066250E+02 4 F /
PERMY   1.013250E+03 5 F /
PERMY   2.026500E+03 6 F /
PERMY   1.000000E-05 7 F /
PERMZ   1.013200E-02 1 F /
PERMZ   1.013240E+01 2 F /
PERMZ   2.026500E+01 3 F /
PERMZ   5.066250E+01 4 F /
PERMZ   1.013250E+02 5 F /
PERMZ   2.026500E+02 6 F /
PERMZ   1.000000E-06 7 F /
THCONR  1.641600E+02 1 F /
THCONR  1.080000E+02 2 F /
THCONR  1.080000E+02 3 F /
THCONR  1.080000E+02 4 F /
THCONR  7.948800E+01 5 F /
THCONR  2.246400E+01 6 F /
THCONR  1.728000E+02 7 F /
DISPERC 1.000000E+01 1 F /
DISPERC 1.000000E+01 2 F /
DISPERC 1.000000E+01 3 F /
DISPERC 1.000000E+01 4 F /
DISPERC 1.000000E+01 5 F /
DISPERC 1.000000E+01 6 F /
DISPERC 0.000000E+00 7 F /
/

BCCON 
1 1 842 1 1 1 1 Z- /
2 1 842 1 1 120 120 Z /
/
----------------------------------------------------------------------------
EDIT
----------------------------------------------------------------------------
INCLUDE
PVBOUNDARIES.INC /
----------------------------------------------------------------------------
PROPS
----------------------------------------------------------------------------
INCLUDE
TABLES.INC /

DIFFAWAT
8.64e-05 8.64e-05 /

DIFFAGAS
0.001728 0.001728 /

SPECROCK
40 2125.0
70 2125.0 / --Table 1
/ --Defaulted to table 1
/ --Defaulted to table 1
/ --Defaulted to table 1
/ --Defaulted to table 1
/ --Defaulted to table 1
/ --Defaulted to table 1

THCO2MIX
NONE NONE NONE /
----------------------------------------------------------------------------
REGIONS
----------------------------------------------------------------------------
COPY
FLUXNUM SATNUM /
/

INCLUDE
FIPNUM.INC /
----------------------------------------------------------------------------
SOLUTION
---------------------------------------------------------------------------
EQUIL
900.0 300.0 0 0 0 0 1 1 0 /

RPTRST
BASIC=2 DEN PCGW RSWSAT /

RTEMPVD
     0 40
1200.0 70 /
----------------------------------------------------------------------------
SUMMARY
----------------------------------------------------------------------------
PERFORMA
FGMIP
RGKTR
/
RGKMO
/
RGMDS
/
BWPR
451 1 70 /
511 1 10 /
/
----------------------------------------------------------------------------
SCHEDULE
----------------------------------------------------------------------------
RPTRST
BASIC=2 DEN PCGW RESIDUAL RSWSAT /

BCPROP
1 THERMAL /
2 THERMAL /
/

SOURCE
271 1 90 GAS 0.000000E+00 1* 1.000000E+01 /
511 1 50 GAS 0.000000E+00 1* 1.000000E+01 /
/
TSTEP
364963.5 /

SOURCE
271 1 90 GAS 0.000000E+00 1* 1.000000E+01 /
511 1 50 GAS 0.000000E+00 1* 1.000000E+01 /
/
TSTEP
36.5 /

SOURCE
271 1 90 GAS 3.024000E+03 1* 1.000000E+01 /
511 1 50 GAS 0.000000E+00 1* 1.000000E+01 /
/
TSTEP
5*1825.0 /

SOURCE
271 1 90 GAS 3.024000E+03 1* 1.000000E+01 /
511 1 50 GAS 3.024000E+03 1* 1.000000E+01 /
/
TSTEP
5*1825.0 /

SOURCE
271 1 90 GAS 0.000000E+00 1* 1.000000E+01 /
511 1 50 GAS 0.000000E+00 1* 1.000000E+01 /
/
TSTEP
190*1825.0 /
