-- Copyright (C) 2023 NORCE
-- This deck was generated by pyopmspe11 https://github.com/OPM/pyopmspe11
----------------------------------------------------------------------------
RUNSPEC
----------------------------------------------------------------------------
DIMENS 
170 102 120 /

EQLDIMS
/

TABDIMS
7 1* 1000 /

WATER
GAS
CO2STORE
DISGASW
VAPWAT
DIFFUSE
THERMAL

METRIC

START
1 'JAN' 2025 /


UNIFOUT
----------------------------------------------------------------------------
GRID
----------------------------------------------------------------------------
INIT

INCLUDE
'GRID.INC' /

INCLUDE
'PERMX.INC' /

COPY 
PERMX PERMY /
PERMX PERMZ /
/

MULTIPLY
PERMZ 0.1 /
/

INCLUDE
'PORO.INC' /

INCLUDE
'THCONR.INC' /

BCCON 
1 1 170 1 102 1 1 Z-/
2 1 170 1 102 120 120 Z/
/

INCLUDE
'DISPERC.INC' /
----------------------------------------------------------------------------
EDIT
----------------------------------------------------------------------------
INCLUDE
'PVBOUNDARIES.INC' /
----------------------------------------------------------------------------
PROPS
----------------------------------------------------------------------------
INCLUDE
'TABLES.INC' /

DIFFAWAT
8.64e-05 8.64e-05 /
DIFFAGAS
0.001728 0.001728 /

SPECROCK
36.12 2125.0
70.0 2125.0 /
36.12 2125.0
70.0 2125.0 /
36.12 2125.0
70.0 2125.0 /
36.12 2125.0
70.0 2125.0 /
36.12 2125.0
70.0 2125.0 /
36.12 2125.0
70.0 2125.0 /
36.12 2125.0
70.0 2125.0 /

THCO2MIX
NONE NONE NONE /
----------------------------------------------------------------------------
REGIONS
----------------------------------------------------------------------------
INCLUDE
'SATNUM.INC' /
INCLUDE
'FIPNUM.INC' /


----------------------------------------------------------------------------
SOLUTION
---------------------------------------------------------------------------
EQUIL
1055.0416666666667 300.0 0 0 0 0 1 1 0 /

RPTRST
'BASIC=2' DEN PCGW RSWSAT /


RTEMPVD
0   36.12
1355.0416666666667 70.0 /
----------------------------------------------------------------------------
SUMMARY
----------------------------------------------------------------------------
PERFORMA
FGIP
FGIR
FGIT
RGKDI
/
RGKDM
/
RGIP
/
RWCD
/
WBHP
/
WGIR
/
WGIT
/
BWPR
91 51 70 /
103 51 10 /
/
----------------------------------------------------------------------------
SCHEDULE
----------------------------------------------------------------------------
RPTRST
'BASIC=2' DEN RESIDUAL PCGW RSWSAT /


BCPROP
1 THERMAL /
2 THERMAL /
/


TUNING
0.01 3650.0 1e-10 2* 1e-12 0.2/
/
/
SOURCE
55 21 100 GAS 0.000000E+00 1* 1.000000E+01 /
55 22 101 GAS 0.000000E+00 1* 1.000000E+01 /
55 23 101 GAS 0.000000E+00 1* 1.000000E+01 /
55 24 101 GAS 0.000000E+00 1* 1.000000E+01 /
55 25 102 GAS 0.000000E+00 1* 1.000000E+01 /
55 26 102 GAS 0.000000E+00 1* 1.000000E+01 /
55 27 102 GAS 0.000000E+00 1* 1.000000E+01 /
55 28 102 GAS 0.000000E+00 1* 1.000000E+01 /
55 29 103 GAS 0.000000E+00 1* 1.000000E+01 /
55 30 103 GAS 0.000000E+00 1* 1.000000E+01 /
55 31 103 GAS 0.000000E+00 1* 1.000000E+01 /
55 32 103 GAS 0.000000E+00 1* 1.000000E+01 /
55 33 104 GAS 0.000000E+00 1* 1.000000E+01 /
55 34 104 GAS 0.000000E+00 1* 1.000000E+01 /
55 35 104 GAS 0.000000E+00 1* 1.000000E+01 /
55 36 104 GAS 0.000000E+00 1* 1.000000E+01 /
55 37 104 GAS 0.000000E+00 1* 1.000000E+01 /
55 38 105 GAS 0.000000E+00 1* 1.000000E+01 /
55 39 105 GAS 0.000000E+00 1* 1.000000E+01 /
55 40 105 GAS 0.000000E+00 1* 1.000000E+01 /
55 41 105 GAS 0.000000E+00 1* 1.000000E+01 /
55 42 105 GAS 0.000000E+00 1* 1.000000E+01 /
55 43 105 GAS 0.000000E+00 1* 1.000000E+01 /
55 44 105 GAS 0.000000E+00 1* 1.000000E+01 /
55 45 105 GAS 0.000000E+00 1* 1.000000E+01 /
55 46 105 GAS 0.000000E+00 1* 1.000000E+01 /
55 47 105 GAS 0.000000E+00 1* 1.000000E+01 /
55 48 105 GAS 0.000000E+00 1* 1.000000E+01 /
55 49 105 GAS 0.000000E+00 1* 1.000000E+01 /
55 50 106 GAS 0.000000E+00 1* 1.000000E+01 /
55 51 106 GAS 0.000000E+00 1* 1.000000E+01 /
55 52 105 GAS 0.000000E+00 1* 1.000000E+01 /
55 53 105 GAS 0.000000E+00 1* 1.000000E+01 /
55 54 105 GAS 0.000000E+00 1* 1.000000E+01 /
55 55 105 GAS 0.000000E+00 1* 1.000000E+01 /
55 56 105 GAS 0.000000E+00 1* 1.000000E+01 /
55 57 105 GAS 0.000000E+00 1* 1.000000E+01 /
55 58 105 GAS 0.000000E+00 1* 1.000000E+01 /
55 59 105 GAS 0.000000E+00 1* 1.000000E+01 /
55 60 105 GAS 0.000000E+00 1* 1.000000E+01 /
55 61 105 GAS 0.000000E+00 1* 1.000000E+01 /
55 62 105 GAS 0.000000E+00 1* 1.000000E+01 /
55 63 105 GAS 0.000000E+00 1* 1.000000E+01 /
55 64 104 GAS 0.000000E+00 1* 1.000000E+01 /
55 65 104 GAS 0.000000E+00 1* 1.000000E+01 /
55 66 104 GAS 0.000000E+00 1* 1.000000E+01 /
55 67 104 GAS 0.000000E+00 1* 1.000000E+01 /
55 68 104 GAS 0.000000E+00 1* 1.000000E+01 /
55 69 103 GAS 0.000000E+00 1* 1.000000E+01 /
55 70 103 GAS 0.000000E+00 1* 1.000000E+01 /
55 71 103 GAS 0.000000E+00 1* 1.000000E+01 /
55 72 103 GAS 0.000000E+00 1* 1.000000E+01 /
55 73 103 GAS 0.000000E+00 1* 1.000000E+01 /
55 74 102 GAS 0.000000E+00 1* 1.000000E+01 /
55 75 102 GAS 0.000000E+00 1* 1.000000E+01 /
55 76 102 GAS 0.000000E+00 1* 1.000000E+01 /
55 77 101 GAS 0.000000E+00 1* 1.000000E+01 /
55 78 101 GAS 0.000000E+00 1* 1.000000E+01 /
55 79 101 GAS 0.000000E+00 1* 1.000000E+01 /
55 80 100 GAS 0.000000E+00 1* 1.000000E+01 /
55 81 100 GAS 0.000000E+00 1* 1.000000E+01 /
103 21 50 GAS 0.000000E+00 1* 1.000000E+01 /
103 22 50 GAS 0.000000E+00 1* 1.000000E+01 /
103 23 50 GAS 0.000000E+00 1* 1.000000E+01 /
103 24 50 GAS 0.000000E+00 1* 1.000000E+01 /
103 25 50 GAS 0.000000E+00 1* 1.000000E+01 /
103 26 50 GAS 0.000000E+00 1* 1.000000E+01 /
103 27 50 GAS 0.000000E+00 1* 1.000000E+01 /
103 28 50 GAS 0.000000E+00 1* 1.000000E+01 /
103 29 50 GAS 0.000000E+00 1* 1.000000E+01 /
103 30 50 GAS 0.000000E+00 1* 1.000000E+01 /
103 31 50 GAS 0.000000E+00 1* 1.000000E+01 /
103 32 50 GAS 0.000000E+00 1* 1.000000E+01 /
103 33 50 GAS 0.000000E+00 1* 1.000000E+01 /
103 34 50 GAS 0.000000E+00 1* 1.000000E+01 /
103 35 50 GAS 0.000000E+00 1* 1.000000E+01 /
103 36 50 GAS 0.000000E+00 1* 1.000000E+01 /
103 37 50 GAS 0.000000E+00 1* 1.000000E+01 /
103 38 50 GAS 0.000000E+00 1* 1.000000E+01 /
103 39 50 GAS 0.000000E+00 1* 1.000000E+01 /
103 40 50 GAS 0.000000E+00 1* 1.000000E+01 /
103 41 50 GAS 0.000000E+00 1* 1.000000E+01 /
103 42 50 GAS 0.000000E+00 1* 1.000000E+01 /
103 43 50 GAS 0.000000E+00 1* 1.000000E+01 /
103 44 50 GAS 0.000000E+00 1* 1.000000E+01 /
103 45 50 GAS 0.000000E+00 1* 1.000000E+01 /
103 46 50 GAS 0.000000E+00 1* 1.000000E+01 /
103 47 50 GAS 0.000000E+00 1* 1.000000E+01 /
103 48 50 GAS 0.000000E+00 1* 1.000000E+01 /
103 49 50 GAS 0.000000E+00 1* 1.000000E+01 /
103 50 50 GAS 0.000000E+00 1* 1.000000E+01 /
103 51 50 GAS 0.000000E+00 1* 1.000000E+01 /
103 52 50 GAS 0.000000E+00 1* 1.000000E+01 /
103 53 50 GAS 0.000000E+00 1* 1.000000E+01 /
103 54 50 GAS 0.000000E+00 1* 1.000000E+01 /
103 55 50 GAS 0.000000E+00 1* 1.000000E+01 /
103 56 50 GAS 0.000000E+00 1* 1.000000E+01 /
103 57 50 GAS 0.000000E+00 1* 1.000000E+01 /
103 58 50 GAS 0.000000E+00 1* 1.000000E+01 /
103 59 50 GAS 0.000000E+00 1* 1.000000E+01 /
103 60 50 GAS 0.000000E+00 1* 1.000000E+01 /
103 61 50 GAS 0.000000E+00 1* 1.000000E+01 /
103 62 50 GAS 0.000000E+00 1* 1.000000E+01 /
103 63 50 GAS 0.000000E+00 1* 1.000000E+01 /
103 64 50 GAS 0.000000E+00 1* 1.000000E+01 /
103 65 50 GAS 0.000000E+00 1* 1.000000E+01 /
103 66 50 GAS 0.000000E+00 1* 1.000000E+01 /
103 67 50 GAS 0.000000E+00 1* 1.000000E+01 /
103 68 50 GAS 0.000000E+00 1* 1.000000E+01 /
103 69 50 GAS 0.000000E+00 1* 1.000000E+01 /
103 70 50 GAS 0.000000E+00 1* 1.000000E+01 /
103 71 50 GAS 0.000000E+00 1* 1.000000E+01 /
103 72 50 GAS 0.000000E+00 1* 1.000000E+01 /
103 73 50 GAS 0.000000E+00 1* 1.000000E+01 /
103 74 50 GAS 0.000000E+00 1* 1.000000E+01 /
103 75 50 GAS 0.000000E+00 1* 1.000000E+01 /
103 76 50 GAS 0.000000E+00 1* 1.000000E+01 /
103 77 50 GAS 0.000000E+00 1* 1.000000E+01 /
103 78 50 GAS 0.000000E+00 1* 1.000000E+01 /
103 79 50 GAS 0.000000E+00 1* 1.000000E+01 /
103 80 50 GAS 0.000000E+00 1* 1.000000E+01 /
103 81 50 GAS 0.000000E+00 1* 1.000000E+01 /
/
TSTEP
1*364963.5
/
TUNING
0.01 36.5 1e-10 2* 1e-12 0.2/
/
/
SOURCE
55 21 100 GAS 0.000000E+00 1* 1.000000E+01 /
55 22 101 GAS 0.000000E+00 1* 1.000000E+01 /
55 23 101 GAS 0.000000E+00 1* 1.000000E+01 /
55 24 101 GAS 0.000000E+00 1* 1.000000E+01 /
55 25 102 GAS 0.000000E+00 1* 1.000000E+01 /
55 26 102 GAS 0.000000E+00 1* 1.000000E+01 /
55 27 102 GAS 0.000000E+00 1* 1.000000E+01 /
55 28 102 GAS 0.000000E+00 1* 1.000000E+01 /
55 29 103 GAS 0.000000E+00 1* 1.000000E+01 /
55 30 103 GAS 0.000000E+00 1* 1.000000E+01 /
55 31 103 GAS 0.000000E+00 1* 1.000000E+01 /
55 32 103 GAS 0.000000E+00 1* 1.000000E+01 /
55 33 104 GAS 0.000000E+00 1* 1.000000E+01 /
55 34 104 GAS 0.000000E+00 1* 1.000000E+01 /
55 35 104 GAS 0.000000E+00 1* 1.000000E+01 /
55 36 104 GAS 0.000000E+00 1* 1.000000E+01 /
55 37 104 GAS 0.000000E+00 1* 1.000000E+01 /
55 38 105 GAS 0.000000E+00 1* 1.000000E+01 /
55 39 105 GAS 0.000000E+00 1* 1.000000E+01 /
55 40 105 GAS 0.000000E+00 1* 1.000000E+01 /
55 41 105 GAS 0.000000E+00 1* 1.000000E+01 /
55 42 105 GAS 0.000000E+00 1* 1.000000E+01 /
55 43 105 GAS 0.000000E+00 1* 1.000000E+01 /
55 44 105 GAS 0.000000E+00 1* 1.000000E+01 /
55 45 105 GAS 0.000000E+00 1* 1.000000E+01 /
55 46 105 GAS 0.000000E+00 1* 1.000000E+01 /
55 47 105 GAS 0.000000E+00 1* 1.000000E+01 /
55 48 105 GAS 0.000000E+00 1* 1.000000E+01 /
55 49 105 GAS 0.000000E+00 1* 1.000000E+01 /
55 50 106 GAS 0.000000E+00 1* 1.000000E+01 /
55 51 106 GAS 0.000000E+00 1* 1.000000E+01 /
55 52 105 GAS 0.000000E+00 1* 1.000000E+01 /
55 53 105 GAS 0.000000E+00 1* 1.000000E+01 /
55 54 105 GAS 0.000000E+00 1* 1.000000E+01 /
55 55 105 GAS 0.000000E+00 1* 1.000000E+01 /
55 56 105 GAS 0.000000E+00 1* 1.000000E+01 /
55 57 105 GAS 0.000000E+00 1* 1.000000E+01 /
55 58 105 GAS 0.000000E+00 1* 1.000000E+01 /
55 59 105 GAS 0.000000E+00 1* 1.000000E+01 /
55 60 105 GAS 0.000000E+00 1* 1.000000E+01 /
55 61 105 GAS 0.000000E+00 1* 1.000000E+01 /
55 62 105 GAS 0.000000E+00 1* 1.000000E+01 /
55 63 105 GAS 0.000000E+00 1* 1.000000E+01 /
55 64 104 GAS 0.000000E+00 1* 1.000000E+01 /
55 65 104 GAS 0.000000E+00 1* 1.000000E+01 /
55 66 104 GAS 0.000000E+00 1* 1.000000E+01 /
55 67 104 GAS 0.000000E+00 1* 1.000000E+01 /
55 68 104 GAS 0.000000E+00 1* 1.000000E+01 /
55 69 103 GAS 0.000000E+00 1* 1.000000E+01 /
55 70 103 GAS 0.000000E+00 1* 1.000000E+01 /
55 71 103 GAS 0.000000E+00 1* 1.000000E+01 /
55 72 103 GAS 0.000000E+00 1* 1.000000E+01 /
55 73 103 GAS 0.000000E+00 1* 1.000000E+01 /
55 74 102 GAS 0.000000E+00 1* 1.000000E+01 /
55 75 102 GAS 0.000000E+00 1* 1.000000E+01 /
55 76 102 GAS 0.000000E+00 1* 1.000000E+01 /
55 77 101 GAS 0.000000E+00 1* 1.000000E+01 /
55 78 101 GAS 0.000000E+00 1* 1.000000E+01 /
55 79 101 GAS 0.000000E+00 1* 1.000000E+01 /
55 80 100 GAS 0.000000E+00 1* 1.000000E+01 /
55 81 100 GAS 0.000000E+00 1* 1.000000E+01 /
103 21 50 GAS 0.000000E+00 1* 1.000000E+01 /
103 22 50 GAS 0.000000E+00 1* 1.000000E+01 /
103 23 50 GAS 0.000000E+00 1* 1.000000E+01 /
103 24 50 GAS 0.000000E+00 1* 1.000000E+01 /
103 25 50 GAS 0.000000E+00 1* 1.000000E+01 /
103 26 50 GAS 0.000000E+00 1* 1.000000E+01 /
103 27 50 GAS 0.000000E+00 1* 1.000000E+01 /
103 28 50 GAS 0.000000E+00 1* 1.000000E+01 /
103 29 50 GAS 0.000000E+00 1* 1.000000E+01 /
103 30 50 GAS 0.000000E+00 1* 1.000000E+01 /
103 31 50 GAS 0.000000E+00 1* 1.000000E+01 /
103 32 50 GAS 0.000000E+00 1* 1.000000E+01 /
103 33 50 GAS 0.000000E+00 1* 1.000000E+01 /
103 34 50 GAS 0.000000E+00 1* 1.000000E+01 /
103 35 50 GAS 0.000000E+00 1* 1.000000E+01 /
103 36 50 GAS 0.000000E+00 1* 1.000000E+01 /
103 37 50 GAS 0.000000E+00 1* 1.000000E+01 /
103 38 50 GAS 0.000000E+00 1* 1.000000E+01 /
103 39 50 GAS 0.000000E+00 1* 1.000000E+01 /
103 40 50 GAS 0.000000E+00 1* 1.000000E+01 /
103 41 50 GAS 0.000000E+00 1* 1.000000E+01 /
103 42 50 GAS 0.000000E+00 1* 1.000000E+01 /
103 43 50 GAS 0.000000E+00 1* 1.000000E+01 /
103 44 50 GAS 0.000000E+00 1* 1.000000E+01 /
103 45 50 GAS 0.000000E+00 1* 1.000000E+01 /
103 46 50 GAS 0.000000E+00 1* 1.000000E+01 /
103 47 50 GAS 0.000000E+00 1* 1.000000E+01 /
103 48 50 GAS 0.000000E+00 1* 1.000000E+01 /
103 49 50 GAS 0.000000E+00 1* 1.000000E+01 /
103 50 50 GAS 0.000000E+00 1* 1.000000E+01 /
103 51 50 GAS 0.000000E+00 1* 1.000000E+01 /
103 52 50 GAS 0.000000E+00 1* 1.000000E+01 /
103 53 50 GAS 0.000000E+00 1* 1.000000E+01 /
103 54 50 GAS 0.000000E+00 1* 1.000000E+01 /
103 55 50 GAS 0.000000E+00 1* 1.000000E+01 /
103 56 50 GAS 0.000000E+00 1* 1.000000E+01 /
103 57 50 GAS 0.000000E+00 1* 1.000000E+01 /
103 58 50 GAS 0.000000E+00 1* 1.000000E+01 /
103 59 50 GAS 0.000000E+00 1* 1.000000E+01 /
103 60 50 GAS 0.000000E+00 1* 1.000000E+01 /
103 61 50 GAS 0.000000E+00 1* 1.000000E+01 /
103 62 50 GAS 0.000000E+00 1* 1.000000E+01 /
103 63 50 GAS 0.000000E+00 1* 1.000000E+01 /
103 64 50 GAS 0.000000E+00 1* 1.000000E+01 /
103 65 50 GAS 0.000000E+00 1* 1.000000E+01 /
103 66 50 GAS 0.000000E+00 1* 1.000000E+01 /
103 67 50 GAS 0.000000E+00 1* 1.000000E+01 /
103 68 50 GAS 0.000000E+00 1* 1.000000E+01 /
103 69 50 GAS 0.000000E+00 1* 1.000000E+01 /
103 70 50 GAS 0.000000E+00 1* 1.000000E+01 /
103 71 50 GAS 0.000000E+00 1* 1.000000E+01 /
103 72 50 GAS 0.000000E+00 1* 1.000000E+01 /
103 73 50 GAS 0.000000E+00 1* 1.000000E+01 /
103 74 50 GAS 0.000000E+00 1* 1.000000E+01 /
103 75 50 GAS 0.000000E+00 1* 1.000000E+01 /
103 76 50 GAS 0.000000E+00 1* 1.000000E+01 /
103 77 50 GAS 0.000000E+00 1* 1.000000E+01 /
103 78 50 GAS 0.000000E+00 1* 1.000000E+01 /
103 79 50 GAS 0.000000E+00 1* 1.000000E+01 /
103 80 50 GAS 0.000000E+00 1* 1.000000E+01 /
103 81 50 GAS 0.000000E+00 1* 1.000000E+01 /
/
TSTEP
1*36.5
/
TUNING
0.01 365.0 1e-10 2* 1e-12 0.2/
/
/
SOURCE
55 21 100 GAS 7.081967E+04 1* 1.000000E+01 /
55 22 101 GAS 7.081967E+04 1* 1.000000E+01 /
55 23 101 GAS 7.081967E+04 1* 1.000000E+01 /
55 24 101 GAS 7.081967E+04 1* 1.000000E+01 /
55 25 102 GAS 7.081967E+04 1* 1.000000E+01 /
55 26 102 GAS 7.081967E+04 1* 1.000000E+01 /
55 27 102 GAS 7.081967E+04 1* 1.000000E+01 /
55 28 102 GAS 7.081967E+04 1* 1.000000E+01 /
55 29 103 GAS 7.081967E+04 1* 1.000000E+01 /
55 30 103 GAS 7.081967E+04 1* 1.000000E+01 /
55 31 103 GAS 7.081967E+04 1* 1.000000E+01 /
55 32 103 GAS 7.081967E+04 1* 1.000000E+01 /
55 33 104 GAS 7.081967E+04 1* 1.000000E+01 /
55 34 104 GAS 7.081967E+04 1* 1.000000E+01 /
55 35 104 GAS 7.081967E+04 1* 1.000000E+01 /
55 36 104 GAS 7.081967E+04 1* 1.000000E+01 /
55 37 104 GAS 7.081967E+04 1* 1.000000E+01 /
55 38 105 GAS 7.081967E+04 1* 1.000000E+01 /
55 39 105 GAS 7.081967E+04 1* 1.000000E+01 /
55 40 105 GAS 7.081967E+04 1* 1.000000E+01 /
55 41 105 GAS 7.081967E+04 1* 1.000000E+01 /
55 42 105 GAS 7.081967E+04 1* 1.000000E+01 /
55 43 105 GAS 7.081967E+04 1* 1.000000E+01 /
55 44 105 GAS 7.081967E+04 1* 1.000000E+01 /
55 45 105 GAS 7.081967E+04 1* 1.000000E+01 /
55 46 105 GAS 7.081967E+04 1* 1.000000E+01 /
55 47 105 GAS 7.081967E+04 1* 1.000000E+01 /
55 48 105 GAS 7.081967E+04 1* 1.000000E+01 /
55 49 105 GAS 7.081967E+04 1* 1.000000E+01 /
55 50 106 GAS 7.081967E+04 1* 1.000000E+01 /
55 51 106 GAS 7.081967E+04 1* 1.000000E+01 /
55 52 105 GAS 7.081967E+04 1* 1.000000E+01 /
55 53 105 GAS 7.081967E+04 1* 1.000000E+01 /
55 54 105 GAS 7.081967E+04 1* 1.000000E+01 /
55 55 105 GAS 7.081967E+04 1* 1.000000E+01 /
55 56 105 GAS 7.081967E+04 1* 1.000000E+01 /
55 57 105 GAS 7.081967E+04 1* 1.000000E+01 /
55 58 105 GAS 7.081967E+04 1* 1.000000E+01 /
55 59 105 GAS 7.081967E+04 1* 1.000000E+01 /
55 60 105 GAS 7.081967E+04 1* 1.000000E+01 /
55 61 105 GAS 7.081967E+04 1* 1.000000E+01 /
55 62 105 GAS 7.081967E+04 1* 1.000000E+01 /
55 63 105 GAS 7.081967E+04 1* 1.000000E+01 /
55 64 104 GAS 7.081967E+04 1* 1.000000E+01 /
55 65 104 GAS 7.081967E+04 1* 1.000000E+01 /
55 66 104 GAS 7.081967E+04 1* 1.000000E+01 /
55 67 104 GAS 7.081967E+04 1* 1.000000E+01 /
55 68 104 GAS 7.081967E+04 1* 1.000000E+01 /
55 69 103 GAS 7.081967E+04 1* 1.000000E+01 /
55 70 103 GAS 7.081967E+04 1* 1.000000E+01 /
55 71 103 GAS 7.081967E+04 1* 1.000000E+01 /
55 72 103 GAS 7.081967E+04 1* 1.000000E+01 /
55 73 103 GAS 7.081967E+04 1* 1.000000E+01 /
55 74 102 GAS 7.081967E+04 1* 1.000000E+01 /
55 75 102 GAS 7.081967E+04 1* 1.000000E+01 /
55 76 102 GAS 7.081967E+04 1* 1.000000E+01 /
55 77 101 GAS 7.081967E+04 1* 1.000000E+01 /
55 78 101 GAS 7.081967E+04 1* 1.000000E+01 /
55 79 101 GAS 7.081967E+04 1* 1.000000E+01 /
55 80 100 GAS 7.081967E+04 1* 1.000000E+01 /
55 81 100 GAS 7.081967E+04 1* 1.000000E+01 /
103 21 50 GAS 0.000000E+00 1* 1.000000E+01 /
103 22 50 GAS 0.000000E+00 1* 1.000000E+01 /
103 23 50 GAS 0.000000E+00 1* 1.000000E+01 /
103 24 50 GAS 0.000000E+00 1* 1.000000E+01 /
103 25 50 GAS 0.000000E+00 1* 1.000000E+01 /
103 26 50 GAS 0.000000E+00 1* 1.000000E+01 /
103 27 50 GAS 0.000000E+00 1* 1.000000E+01 /
103 28 50 GAS 0.000000E+00 1* 1.000000E+01 /
103 29 50 GAS 0.000000E+00 1* 1.000000E+01 /
103 30 50 GAS 0.000000E+00 1* 1.000000E+01 /
103 31 50 GAS 0.000000E+00 1* 1.000000E+01 /
103 32 50 GAS 0.000000E+00 1* 1.000000E+01 /
103 33 50 GAS 0.000000E+00 1* 1.000000E+01 /
103 34 50 GAS 0.000000E+00 1* 1.000000E+01 /
103 35 50 GAS 0.000000E+00 1* 1.000000E+01 /
103 36 50 GAS 0.000000E+00 1* 1.000000E+01 /
103 37 50 GAS 0.000000E+00 1* 1.000000E+01 /
103 38 50 GAS 0.000000E+00 1* 1.000000E+01 /
103 39 50 GAS 0.000000E+00 1* 1.000000E+01 /
103 40 50 GAS 0.000000E+00 1* 1.000000E+01 /
103 41 50 GAS 0.000000E+00 1* 1.000000E+01 /
103 42 50 GAS 0.000000E+00 1* 1.000000E+01 /
103 43 50 GAS 0.000000E+00 1* 1.000000E+01 /
103 44 50 GAS 0.000000E+00 1* 1.000000E+01 /
103 45 50 GAS 0.000000E+00 1* 1.000000E+01 /
103 46 50 GAS 0.000000E+00 1* 1.000000E+01 /
103 47 50 GAS 0.000000E+00 1* 1.000000E+01 /
103 48 50 GAS 0.000000E+00 1* 1.000000E+01 /
103 49 50 GAS 0.000000E+00 1* 1.000000E+01 /
103 50 50 GAS 0.000000E+00 1* 1.000000E+01 /
103 51 50 GAS 0.000000E+00 1* 1.000000E+01 /
103 52 50 GAS 0.000000E+00 1* 1.000000E+01 /
103 53 50 GAS 0.000000E+00 1* 1.000000E+01 /
103 54 50 GAS 0.000000E+00 1* 1.000000E+01 /
103 55 50 GAS 0.000000E+00 1* 1.000000E+01 /
103 56 50 GAS 0.000000E+00 1* 1.000000E+01 /
103 57 50 GAS 0.000000E+00 1* 1.000000E+01 /
103 58 50 GAS 0.000000E+00 1* 1.000000E+01 /
103 59 50 GAS 0.000000E+00 1* 1.000000E+01 /
103 60 50 GAS 0.000000E+00 1* 1.000000E+01 /
103 61 50 GAS 0.000000E+00 1* 1.000000E+01 /
103 62 50 GAS 0.000000E+00 1* 1.000000E+01 /
103 63 50 GAS 0.000000E+00 1* 1.000000E+01 /
103 64 50 GAS 0.000000E+00 1* 1.000000E+01 /
103 65 50 GAS 0.000000E+00 1* 1.000000E+01 /
103 66 50 GAS 0.000000E+00 1* 1.000000E+01 /
103 67 50 GAS 0.000000E+00 1* 1.000000E+01 /
103 68 50 GAS 0.000000E+00 1* 1.000000E+01 /
103 69 50 GAS 0.000000E+00 1* 1.000000E+01 /
103 70 50 GAS 0.000000E+00 1* 1.000000E+01 /
103 71 50 GAS 0.000000E+00 1* 1.000000E+01 /
103 72 50 GAS 0.000000E+00 1* 1.000000E+01 /
103 73 50 GAS 0.000000E+00 1* 1.000000E+01 /
103 74 50 GAS 0.000000E+00 1* 1.000000E+01 /
103 75 50 GAS 0.000000E+00 1* 1.000000E+01 /
103 76 50 GAS 0.000000E+00 1* 1.000000E+01 /
103 77 50 GAS 0.000000E+00 1* 1.000000E+01 /
103 78 50 GAS 0.000000E+00 1* 1.000000E+01 /
103 79 50 GAS 0.000000E+00 1* 1.000000E+01 /
103 80 50 GAS 0.000000E+00 1* 1.000000E+01 /
103 81 50 GAS 0.000000E+00 1* 1.000000E+01 /
/
TSTEP
5*1825.0
/
TUNING
0.01 109.5 1e-10 2* 1e-12 0.2/
/
/
SOURCE
55 21 100 GAS 7.081967E+04 1* 1.000000E+01 /
55 22 101 GAS 7.081967E+04 1* 1.000000E+01 /
55 23 101 GAS 7.081967E+04 1* 1.000000E+01 /
55 24 101 GAS 7.081967E+04 1* 1.000000E+01 /
55 25 102 GAS 7.081967E+04 1* 1.000000E+01 /
55 26 102 GAS 7.081967E+04 1* 1.000000E+01 /
55 27 102 GAS 7.081967E+04 1* 1.000000E+01 /
55 28 102 GAS 7.081967E+04 1* 1.000000E+01 /
55 29 103 GAS 7.081967E+04 1* 1.000000E+01 /
55 30 103 GAS 7.081967E+04 1* 1.000000E+01 /
55 31 103 GAS 7.081967E+04 1* 1.000000E+01 /
55 32 103 GAS 7.081967E+04 1* 1.000000E+01 /
55 33 104 GAS 7.081967E+04 1* 1.000000E+01 /
55 34 104 GAS 7.081967E+04 1* 1.000000E+01 /
55 35 104 GAS 7.081967E+04 1* 1.000000E+01 /
55 36 104 GAS 7.081967E+04 1* 1.000000E+01 /
55 37 104 GAS 7.081967E+04 1* 1.000000E+01 /
55 38 105 GAS 7.081967E+04 1* 1.000000E+01 /
55 39 105 GAS 7.081967E+04 1* 1.000000E+01 /
55 40 105 GAS 7.081967E+04 1* 1.000000E+01 /
55 41 105 GAS 7.081967E+04 1* 1.000000E+01 /
55 42 105 GAS 7.081967E+04 1* 1.000000E+01 /
55 43 105 GAS 7.081967E+04 1* 1.000000E+01 /
55 44 105 GAS 7.081967E+04 1* 1.000000E+01 /
55 45 105 GAS 7.081967E+04 1* 1.000000E+01 /
55 46 105 GAS 7.081967E+04 1* 1.000000E+01 /
55 47 105 GAS 7.081967E+04 1* 1.000000E+01 /
55 48 105 GAS 7.081967E+04 1* 1.000000E+01 /
55 49 105 GAS 7.081967E+04 1* 1.000000E+01 /
55 50 106 GAS 7.081967E+04 1* 1.000000E+01 /
55 51 106 GAS 7.081967E+04 1* 1.000000E+01 /
55 52 105 GAS 7.081967E+04 1* 1.000000E+01 /
55 53 105 GAS 7.081967E+04 1* 1.000000E+01 /
55 54 105 GAS 7.081967E+04 1* 1.000000E+01 /
55 55 105 GAS 7.081967E+04 1* 1.000000E+01 /
55 56 105 GAS 7.081967E+04 1* 1.000000E+01 /
55 57 105 GAS 7.081967E+04 1* 1.000000E+01 /
55 58 105 GAS 7.081967E+04 1* 1.000000E+01 /
55 59 105 GAS 7.081967E+04 1* 1.000000E+01 /
55 60 105 GAS 7.081967E+04 1* 1.000000E+01 /
55 61 105 GAS 7.081967E+04 1* 1.000000E+01 /
55 62 105 GAS 7.081967E+04 1* 1.000000E+01 /
55 63 105 GAS 7.081967E+04 1* 1.000000E+01 /
55 64 104 GAS 7.081967E+04 1* 1.000000E+01 /
55 65 104 GAS 7.081967E+04 1* 1.000000E+01 /
55 66 104 GAS 7.081967E+04 1* 1.000000E+01 /
55 67 104 GAS 7.081967E+04 1* 1.000000E+01 /
55 68 104 GAS 7.081967E+04 1* 1.000000E+01 /
55 69 103 GAS 7.081967E+04 1* 1.000000E+01 /
55 70 103 GAS 7.081967E+04 1* 1.000000E+01 /
55 71 103 GAS 7.081967E+04 1* 1.000000E+01 /
55 72 103 GAS 7.081967E+04 1* 1.000000E+01 /
55 73 103 GAS 7.081967E+04 1* 1.000000E+01 /
55 74 102 GAS 7.081967E+04 1* 1.000000E+01 /
55 75 102 GAS 7.081967E+04 1* 1.000000E+01 /
55 76 102 GAS 7.081967E+04 1* 1.000000E+01 /
55 77 101 GAS 7.081967E+04 1* 1.000000E+01 /
55 78 101 GAS 7.081967E+04 1* 1.000000E+01 /
55 79 101 GAS 7.081967E+04 1* 1.000000E+01 /
55 80 100 GAS 7.081967E+04 1* 1.000000E+01 /
55 81 100 GAS 7.081967E+04 1* 1.000000E+01 /
103 21 50 GAS 7.081967E+04 1* 1.000000E+01 /
103 22 50 GAS 7.081967E+04 1* 1.000000E+01 /
103 23 50 GAS 7.081967E+04 1* 1.000000E+01 /
103 24 50 GAS 7.081967E+04 1* 1.000000E+01 /
103 25 50 GAS 7.081967E+04 1* 1.000000E+01 /
103 26 50 GAS 7.081967E+04 1* 1.000000E+01 /
103 27 50 GAS 7.081967E+04 1* 1.000000E+01 /
103 28 50 GAS 7.081967E+04 1* 1.000000E+01 /
103 29 50 GAS 7.081967E+04 1* 1.000000E+01 /
103 30 50 GAS 7.081967E+04 1* 1.000000E+01 /
103 31 50 GAS 7.081967E+04 1* 1.000000E+01 /
103 32 50 GAS 7.081967E+04 1* 1.000000E+01 /
103 33 50 GAS 7.081967E+04 1* 1.000000E+01 /
103 34 50 GAS 7.081967E+04 1* 1.000000E+01 /
103 35 50 GAS 7.081967E+04 1* 1.000000E+01 /
103 36 50 GAS 7.081967E+04 1* 1.000000E+01 /
103 37 50 GAS 7.081967E+04 1* 1.000000E+01 /
103 38 50 GAS 7.081967E+04 1* 1.000000E+01 /
103 39 50 GAS 7.081967E+04 1* 1.000000E+01 /
103 40 50 GAS 7.081967E+04 1* 1.000000E+01 /
103 41 50 GAS 7.081967E+04 1* 1.000000E+01 /
103 42 50 GAS 7.081967E+04 1* 1.000000E+01 /
103 43 50 GAS 7.081967E+04 1* 1.000000E+01 /
103 44 50 GAS 7.081967E+04 1* 1.000000E+01 /
103 45 50 GAS 7.081967E+04 1* 1.000000E+01 /
103 46 50 GAS 7.081967E+04 1* 1.000000E+01 /
103 47 50 GAS 7.081967E+04 1* 1.000000E+01 /
103 48 50 GAS 7.081967E+04 1* 1.000000E+01 /
103 49 50 GAS 7.081967E+04 1* 1.000000E+01 /
103 50 50 GAS 7.081967E+04 1* 1.000000E+01 /
103 51 50 GAS 7.081967E+04 1* 1.000000E+01 /
103 52 50 GAS 7.081967E+04 1* 1.000000E+01 /
103 53 50 GAS 7.081967E+04 1* 1.000000E+01 /
103 54 50 GAS 7.081967E+04 1* 1.000000E+01 /
103 55 50 GAS 7.081967E+04 1* 1.000000E+01 /
103 56 50 GAS 7.081967E+04 1* 1.000000E+01 /
103 57 50 GAS 7.081967E+04 1* 1.000000E+01 /
103 58 50 GAS 7.081967E+04 1* 1.000000E+01 /
103 59 50 GAS 7.081967E+04 1* 1.000000E+01 /
103 60 50 GAS 7.081967E+04 1* 1.000000E+01 /
103 61 50 GAS 7.081967E+04 1* 1.000000E+01 /
103 62 50 GAS 7.081967E+04 1* 1.000000E+01 /
103 63 50 GAS 7.081967E+04 1* 1.000000E+01 /
103 64 50 GAS 7.081967E+04 1* 1.000000E+01 /
103 65 50 GAS 7.081967E+04 1* 1.000000E+01 /
103 66 50 GAS 7.081967E+04 1* 1.000000E+01 /
103 67 50 GAS 7.081967E+04 1* 1.000000E+01 /
103 68 50 GAS 7.081967E+04 1* 1.000000E+01 /
103 69 50 GAS 7.081967E+04 1* 1.000000E+01 /
103 70 50 GAS 7.081967E+04 1* 1.000000E+01 /
103 71 50 GAS 7.081967E+04 1* 1.000000E+01 /
103 72 50 GAS 7.081967E+04 1* 1.000000E+01 /
103 73 50 GAS 7.081967E+04 1* 1.000000E+01 /
103 74 50 GAS 7.081967E+04 1* 1.000000E+01 /
103 75 50 GAS 7.081967E+04 1* 1.000000E+01 /
103 76 50 GAS 7.081967E+04 1* 1.000000E+01 /
103 77 50 GAS 7.081967E+04 1* 1.000000E+01 /
103 78 50 GAS 7.081967E+04 1* 1.000000E+01 /
103 79 50 GAS 7.081967E+04 1* 1.000000E+01 /
103 80 50 GAS 7.081967E+04 1* 1.000000E+01 /
103 81 50 GAS 7.081967E+04 1* 1.000000E+01 /
/
TSTEP
5*1825.0
/
TUNING
0.01 182.5 1e-10 2* 1e-12 0.2/
/
/
SOURCE
55 21 100 GAS 0.000000E+00 1* 1.000000E+01 /
55 22 101 GAS 0.000000E+00 1* 1.000000E+01 /
55 23 101 GAS 0.000000E+00 1* 1.000000E+01 /
55 24 101 GAS 0.000000E+00 1* 1.000000E+01 /
55 25 102 GAS 0.000000E+00 1* 1.000000E+01 /
55 26 102 GAS 0.000000E+00 1* 1.000000E+01 /
55 27 102 GAS 0.000000E+00 1* 1.000000E+01 /
55 28 102 GAS 0.000000E+00 1* 1.000000E+01 /
55 29 103 GAS 0.000000E+00 1* 1.000000E+01 /
55 30 103 GAS 0.000000E+00 1* 1.000000E+01 /
55 31 103 GAS 0.000000E+00 1* 1.000000E+01 /
55 32 103 GAS 0.000000E+00 1* 1.000000E+01 /
55 33 104 GAS 0.000000E+00 1* 1.000000E+01 /
55 34 104 GAS 0.000000E+00 1* 1.000000E+01 /
55 35 104 GAS 0.000000E+00 1* 1.000000E+01 /
55 36 104 GAS 0.000000E+00 1* 1.000000E+01 /
55 37 104 GAS 0.000000E+00 1* 1.000000E+01 /
55 38 105 GAS 0.000000E+00 1* 1.000000E+01 /
55 39 105 GAS 0.000000E+00 1* 1.000000E+01 /
55 40 105 GAS 0.000000E+00 1* 1.000000E+01 /
55 41 105 GAS 0.000000E+00 1* 1.000000E+01 /
55 42 105 GAS 0.000000E+00 1* 1.000000E+01 /
55 43 105 GAS 0.000000E+00 1* 1.000000E+01 /
55 44 105 GAS 0.000000E+00 1* 1.000000E+01 /
55 45 105 GAS 0.000000E+00 1* 1.000000E+01 /
55 46 105 GAS 0.000000E+00 1* 1.000000E+01 /
55 47 105 GAS 0.000000E+00 1* 1.000000E+01 /
55 48 105 GAS 0.000000E+00 1* 1.000000E+01 /
55 49 105 GAS 0.000000E+00 1* 1.000000E+01 /
55 50 106 GAS 0.000000E+00 1* 1.000000E+01 /
55 51 106 GAS 0.000000E+00 1* 1.000000E+01 /
55 52 105 GAS 0.000000E+00 1* 1.000000E+01 /
55 53 105 GAS 0.000000E+00 1* 1.000000E+01 /
55 54 105 GAS 0.000000E+00 1* 1.000000E+01 /
55 55 105 GAS 0.000000E+00 1* 1.000000E+01 /
55 56 105 GAS 0.000000E+00 1* 1.000000E+01 /
55 57 105 GAS 0.000000E+00 1* 1.000000E+01 /
55 58 105 GAS 0.000000E+00 1* 1.000000E+01 /
55 59 105 GAS 0.000000E+00 1* 1.000000E+01 /
55 60 105 GAS 0.000000E+00 1* 1.000000E+01 /
55 61 105 GAS 0.000000E+00 1* 1.000000E+01 /
55 62 105 GAS 0.000000E+00 1* 1.000000E+01 /
55 63 105 GAS 0.000000E+00 1* 1.000000E+01 /
55 64 104 GAS 0.000000E+00 1* 1.000000E+01 /
55 65 104 GAS 0.000000E+00 1* 1.000000E+01 /
55 66 104 GAS 0.000000E+00 1* 1.000000E+01 /
55 67 104 GAS 0.000000E+00 1* 1.000000E+01 /
55 68 104 GAS 0.000000E+00 1* 1.000000E+01 /
55 69 103 GAS 0.000000E+00 1* 1.000000E+01 /
55 70 103 GAS 0.000000E+00 1* 1.000000E+01 /
55 71 103 GAS 0.000000E+00 1* 1.000000E+01 /
55 72 103 GAS 0.000000E+00 1* 1.000000E+01 /
55 73 103 GAS 0.000000E+00 1* 1.000000E+01 /
55 74 102 GAS 0.000000E+00 1* 1.000000E+01 /
55 75 102 GAS 0.000000E+00 1* 1.000000E+01 /
55 76 102 GAS 0.000000E+00 1* 1.000000E+01 /
55 77 101 GAS 0.000000E+00 1* 1.000000E+01 /
55 78 101 GAS 0.000000E+00 1* 1.000000E+01 /
55 79 101 GAS 0.000000E+00 1* 1.000000E+01 /
55 80 100 GAS 0.000000E+00 1* 1.000000E+01 /
55 81 100 GAS 0.000000E+00 1* 1.000000E+01 /
103 21 50 GAS 0.000000E+00 1* 1.000000E+01 /
103 22 50 GAS 0.000000E+00 1* 1.000000E+01 /
103 23 50 GAS 0.000000E+00 1* 1.000000E+01 /
103 24 50 GAS 0.000000E+00 1* 1.000000E+01 /
103 25 50 GAS 0.000000E+00 1* 1.000000E+01 /
103 26 50 GAS 0.000000E+00 1* 1.000000E+01 /
103 27 50 GAS 0.000000E+00 1* 1.000000E+01 /
103 28 50 GAS 0.000000E+00 1* 1.000000E+01 /
103 29 50 GAS 0.000000E+00 1* 1.000000E+01 /
103 30 50 GAS 0.000000E+00 1* 1.000000E+01 /
103 31 50 GAS 0.000000E+00 1* 1.000000E+01 /
103 32 50 GAS 0.000000E+00 1* 1.000000E+01 /
103 33 50 GAS 0.000000E+00 1* 1.000000E+01 /
103 34 50 GAS 0.000000E+00 1* 1.000000E+01 /
103 35 50 GAS 0.000000E+00 1* 1.000000E+01 /
103 36 50 GAS 0.000000E+00 1* 1.000000E+01 /
103 37 50 GAS 0.000000E+00 1* 1.000000E+01 /
103 38 50 GAS 0.000000E+00 1* 1.000000E+01 /
103 39 50 GAS 0.000000E+00 1* 1.000000E+01 /
103 40 50 GAS 0.000000E+00 1* 1.000000E+01 /
103 41 50 GAS 0.000000E+00 1* 1.000000E+01 /
103 42 50 GAS 0.000000E+00 1* 1.000000E+01 /
103 43 50 GAS 0.000000E+00 1* 1.000000E+01 /
103 44 50 GAS 0.000000E+00 1* 1.000000E+01 /
103 45 50 GAS 0.000000E+00 1* 1.000000E+01 /
103 46 50 GAS 0.000000E+00 1* 1.000000E+01 /
103 47 50 GAS 0.000000E+00 1* 1.000000E+01 /
103 48 50 GAS 0.000000E+00 1* 1.000000E+01 /
103 49 50 GAS 0.000000E+00 1* 1.000000E+01 /
103 50 50 GAS 0.000000E+00 1* 1.000000E+01 /
103 51 50 GAS 0.000000E+00 1* 1.000000E+01 /
103 52 50 GAS 0.000000E+00 1* 1.000000E+01 /
103 53 50 GAS 0.000000E+00 1* 1.000000E+01 /
103 54 50 GAS 0.000000E+00 1* 1.000000E+01 /
103 55 50 GAS 0.000000E+00 1* 1.000000E+01 /
103 56 50 GAS 0.000000E+00 1* 1.000000E+01 /
103 57 50 GAS 0.000000E+00 1* 1.000000E+01 /
103 58 50 GAS 0.000000E+00 1* 1.000000E+01 /
103 59 50 GAS 0.000000E+00 1* 1.000000E+01 /
103 60 50 GAS 0.000000E+00 1* 1.000000E+01 /
103 61 50 GAS 0.000000E+00 1* 1.000000E+01 /
103 62 50 GAS 0.000000E+00 1* 1.000000E+01 /
103 63 50 GAS 0.000000E+00 1* 1.000000E+01 /
103 64 50 GAS 0.000000E+00 1* 1.000000E+01 /
103 65 50 GAS 0.000000E+00 1* 1.000000E+01 /
103 66 50 GAS 0.000000E+00 1* 1.000000E+01 /
103 67 50 GAS 0.000000E+00 1* 1.000000E+01 /
103 68 50 GAS 0.000000E+00 1* 1.000000E+01 /
103 69 50 GAS 0.000000E+00 1* 1.000000E+01 /
103 70 50 GAS 0.000000E+00 1* 1.000000E+01 /
103 71 50 GAS 0.000000E+00 1* 1.000000E+01 /
103 72 50 GAS 0.000000E+00 1* 1.000000E+01 /
103 73 50 GAS 0.000000E+00 1* 1.000000E+01 /
103 74 50 GAS 0.000000E+00 1* 1.000000E+01 /
103 75 50 GAS 0.000000E+00 1* 1.000000E+01 /