-- Copyright (C) 2023 NORCE
-- This deck was generated by pyopmspe11 https://github.com/OPM/pyopmspe11
----------------------------------------------------------------------------
RUNSPEC
----------------------------------------------------------------------------
DIMENS 
280 1 120 /

EQLDIMS
/

TABDIMS
7 1* 1000 /

WATER
GAS
CO2STORE
DISGASW
VAPWAT
DIFFUSE

METRIC

START
1 'JAN' 2025 /


UNIFOUT
----------------------------------------------------------------------------
GRID
----------------------------------------------------------------------------
INIT
DX 
33600*0.01 /
DY 
33600*0.01 /
DZ 
33600*0.01 /
TOPS
280*0.0 /

INCLUDE
'PERMX.INC' /

COPY 
PERMX PERMY /
PERMX PERMZ /
/

MULTIPLY
PERMZ 1.0 /
/

INCLUDE
'PORO.INC' /

BCCON 
1 1 280 1 1 1 1 Z-/
/

INCLUDE
'DISPERC.INC' /

----------------------------------------------------------------------------
PROPS
----------------------------------------------------------------------------
INCLUDE
'TABLES.INC' /

DIFFAWAT
8.64e-05 8.64e-05 /
DIFFAGAS
1.3823999999999999 1.3823999999999999 /

THCO2MIX
NONE NONE NONE /
----------------------------------------------------------------------------
REGIONS
----------------------------------------------------------------------------
INCLUDE
'SATNUM.INC' /
INCLUDE
'FIPNUM.INC' /

----------------------------------------------------------------------------
SOLUTION
---------------------------------------------------------------------------
EQUIL
0.0 1.1 0 0 0 0 1 1 0 /

RPTRST
'BASIC=2' DEN PCGW  RSWSAT /


RTEMPVD
0   20.0
1.2 20.0 /
----------------------------------------------------------------------------
SUMMARY
----------------------------------------------------------------------------
PERFORMA
FGIP
FGIR
FGIT
RGKDI
/
RGKDM
/
RGIP
/
RWCD
/
WBHP
/
WGIR
/
WGIT
/
BWPR
150 1 70 /
170 1 10 /
/
----------------------------------------------------------------------------
SCHEDULE
----------------------------------------------------------------------------
RPTRST
'BASIC=2' DEN RESIDUAL PCGW  RSWSAT /


BCPROP
1 DIRICHLET WATER 1* 1.115 /
/

TUNING
0.01 0.020833333333333332 1e-10 2* 1e-12 /
/
/
SOURCE
90 1 90 GAS 1.468800E-02 /
170 1 50 GAS 0.000000E+00 /
/
TSTEP
5*0.020833333333333332
/
TUNING
0.01 0.020833333333333332 1e-10 2* 1e-12 /
/
/
SOURCE
90 1 90 GAS 1.468800E-02 /
170 1 50 GAS 1.468800E-02 /
/
TSTEP
5*0.020833333333333332
/
TUNING
0.01 0.041666666666666664 1e-10 2* 1e-12 /
/
/
SOURCE
90 1 90 GAS 0.000000E+00 /
170 1 50 GAS 0.000000E+00 /
/
TSTEP
115*0.041666666666666664
/
