-- Copyright (C) 2023 NORCE
-- This deck was generated by pyopmspe11 https://github.com/OPM/pyopmspe11
----------------------------------------------------------------------------
RUNSPEC
----------------------------------------------------------------------------
DIMENS 
842 1 120 /

EQLDIMS
/

TABDIMS
7 1* 1000 /

WATER
GAS
CO2STORE
DISGASW
VAPWAT
DIFFUSE

THERMAL

METRIC

START
1 'JAN' 2025 /


UNIFOUT
----------------------------------------------------------------------------
GRID
----------------------------------------------------------------------------
INIT
INCLUDE
'DX.INC' /
DY 
101040*1.0 /
DZ 
101040*10.0 /
TOPS
842*0.0 /

INCLUDE
'PERMX.INC' /

COPY 
PERMX PERMY /
PERMX PERMZ /
/

MULTIPLY
PERMZ 0.1 /
/

INCLUDE
'PORO.INC' /

INCLUDE
'THCONR.INC' /

BCCON 
1 1 842 1 1 1 1 Z-/
2 1 842 1 1 120 120 Z/
/

INCLUDE
'DISPERC.INC' /
----------------------------------------------------------------------------
EDIT
----------------------------------------------------------------------------
INCLUDE
'PVBOUNDARIES.INC' /
----------------------------------------------------------------------------
PROPS
----------------------------------------------------------------------------
INCLUDE
'TABLES.INC' /

DIFFAWAT
8.64e-05 8.64e-05 /
DIFFAGAS
0.001728 0.001728 /

SPECROCK
40.0 2125.0
70.0 2125.0 /
40.0 2125.0
70.0 2125.0 /
40.0 2125.0
70.0 2125.0 /
40.0 2125.0
70.0 2125.0 /
40.0 2125.0
70.0 2125.0 /
40.0 2125.0
70.0 2125.0 /
40.0 2125.0
70.0 2125.0 /


THCO2MIX
NONE NONE NONE /
----------------------------------------------------------------------------
REGIONS
----------------------------------------------------------------------------
INCLUDE
'SATNUM.INC' /
INCLUDE
'FIPNUM.INC' /

----------------------------------------------------------------------------
SOLUTION
---------------------------------------------------------------------------
EQUIL
900.0 300.0 0 0 0 0 1 1 0 /

RPTRST
'BASIC=2' DEN PCGW  RSWSAT /


RTEMPVD
0   40.0
1200.0 70.0 /

----------------------------------------------------------------------------
SUMMARY
----------------------------------------------------------------------------
PERFORMA
FGIP
FGIR
FGIT

FGIPL
FGIPG

RGKDI
/
RGKDM
/
RGIP
/
RWCD
/
WBHP
/
WGIR
/
WGIT
/
BWPR
451 1 70 /
511 1 10 /
/
----------------------------------------------------------------------------
SCHEDULE
----------------------------------------------------------------------------
RPTRST
'BASIC=2' DEN RESIDUAL PCGW  RSWSAT /


BCPROP
1 THERMAL /
2 THERMAL /
/


TUNING
0.01 3650.0 1e-10 2* 1e-12 0.2/
/
/
SOURCE
271 1 90 GAS 0.000000E+00 1* 1.000000E+01 /
511 1 50 GAS 0.000000E+00 1* 1.000000E+01 /
/
TSTEP
1*364963.5
/
TUNING
0.01 36.5 1e-10 2* 1e-12 0.2/
/
/
SOURCE
271 1 90 GAS 0.000000E+00 1* 1.000000E+01 /
511 1 50 GAS 0.000000E+00 1* 1.000000E+01 /
/
TSTEP
1*36.5
/
TUNING
0.01 1825.0 1e-10 2* 1e-12 0.2/
/
/
SOURCE
271 1 90 GAS 3.024000E+03 1* 1.000000E+01 /
511 1 50 GAS 0.000000E+00 1* 1.000000E+01 /
/
TSTEP
5*1825.0
/
TUNING
0.01 1825.0 1e-10 2* 1e-12 0.2/
/
/
SOURCE
271 1 90 GAS 3.024000E+03 1* 1.000000E+01 /
511 1 50 GAS 3.024000E+03 1* 1.000000E+01 /
/
TSTEP
5*1825.0
/
TUNING
0.01 1825.0 1e-10 2* 1e-12 0.2/
/
/
SOURCE
271 1 90 GAS 0.000000E+00 1* 1.000000E+01 /
511 1 50 GAS 0.000000E+00 1* 1.000000E+01 /
/
TSTEP
190*1825.0
/
